@<TRIPOS>MOLECULE
*****
 62 66 0 0 0
SMALL
GASTEIGER

@<TRIPOS>ATOM
      1 C          -7.3665    1.5225   -4.8056 C.ar    1  UNL11       0.1355
      2 C          -7.3228    0.5242   -5.7781 C.ar    1  UNL11       0.0247
      3 C          -6.5857    0.7190   -6.9459 C.ar    1  UNL11       0.1537
      4 C          -5.8730    1.9078   -7.1318 C.ar    1  UNL11       0.0835
      5 C          -5.9074    2.8992   -6.1523 C.ar    1  UNL11      -0.0363
      6 C          -6.6515    2.7076   -4.9899 C.ar    1  UNL11      -0.0176
      7 H          -5.3516    3.8229   -6.2921 H       1  UNL11       0.0634
      8 H          -6.6694    3.4825   -4.2275 H       1  UNL11       0.0655
      9 C          -6.2081   -2.3924   -9.7139 C.ar    1  UNL11      -0.0206
     10 C          -6.0347   -3.4440  -10.6156 C.ar    1  UNL11       0.0869
     11 C          -6.7567   -3.4669  -11.8092 C.ar    1  UNL11      -0.0345
     12 C          -7.6593   -2.4456  -12.0930 C.ar    1  UNL11      -0.0589
     13 C          -7.8379   -1.4002  -11.1889 C.ar    1  UNL11      -0.0476
     14 C          -7.1141   -1.3628   -9.9924 C.ar    1  UNL11       0.0615
     15 H          -5.6325   -2.3834   -8.7910 H       1  UNL11       0.0647
     16 H          -6.6195   -4.2807  -12.5180 H       1  UNL11       0.0639
     17 H          -8.2249   -2.4636  -13.0214 H       1  UNL11       0.0618
     18 H          -8.5461   -0.6096  -11.4255 H       1  UNL11       0.0626
     19 C          -9.7911    0.2387    0.0431 C.ar    1  UNL11       0.0869
     20 C          -9.2208    0.5946   -1.1805 C.ar    1  UNL11      -0.0206
     21 C          -9.6553    1.7394   -1.8585 C.ar    1  UNL11       0.0615
     22 C         -10.6665    2.5218   -1.2905 C.ar    1  UNL11      -0.0476
     23 C         -11.2334    2.1690   -0.0672 C.ar    1  UNL11      -0.0589
     24 C         -10.7948    1.0298    0.6023 C.ar    1  UNL11      -0.0345
     25 H          -8.4334   -0.0273   -1.6003 H       1  UNL11       0.0647
     26 H         -11.0191    3.4155   -1.8000 H       1  UNL11       0.0626
     27 H         -12.0176    2.7849    0.3660 H       1  UNL11       0.0618
     28 H         -11.2373    0.7600    1.5589 H       1  UNL11       0.0639
     29 CL         -4.9289    2.1687   -8.5612 Cl      1  UNL11      -0.0797
     30 C          -4.6434   -7.3923  -10.3646 C.ar    1  UNL11      -0.0345
     31 C          -3.7429   -8.4170  -10.0768 C.ar    1  UNL11      -0.0597
     32 C          -3.0224   -8.3983   -8.8836 C.ar    1  UNL11      -0.0616
     33 C          -3.2032   -7.3556   -7.9761 C.ar    1  UNL11      -0.0597
     34 C          -4.1030   -6.3297   -8.2616 C.ar    1  UNL11      -0.0345
     35 C          -4.8205   -6.3435   -9.4597 C.ar    1  UNL11       0.0862
     36 H          -5.2045   -7.4123  -11.2962 H       1  UNL11       0.0639
     37 H          -3.6034   -9.2313  -10.7834 H       1  UNL11       0.0618
     38 H          -2.6428   -7.3423   -7.0446 H       1  UNL11       0.0618
     39 H          -4.2417   -5.5191   -7.5497 H       1  UNL11       0.0639
     40 C          -9.6871   -4.4474    2.9249 C.ar    1  UNL11      -0.0597
     41 C         -10.1356   -3.3141    2.2482 C.ar    1  UNL11      -0.0345
     42 C          -9.5572   -2.9537    1.0292 C.ar    1  UNL11       0.0862
     43 C          -8.5375   -3.7373    0.4845 C.ar    1  UNL11      -0.0345
     44 C          -8.0907   -4.8702    1.1633 C.ar    1  UNL11      -0.0597
     45 C          -8.6643   -5.2246    2.3834 C.ar    1  UNL11      -0.0616
     46 H         -10.1358   -4.7251    3.8754 H       1  UNL11       0.0618
     47 H         -10.9346   -2.7115    2.6745 H       1  UNL11       0.0639
     48 H          -8.0873   -3.4655   -0.4677 H       1  UNL11       0.0639
     49 H          -7.2944   -5.4775    0.7400 H       1  UNL11       0.0618
     50 N          -9.9834   -1.8967    0.3898 N.2     1  UNL11      -0.1493
     51 N          -9.3658   -0.8202    0.6794 N.2     1  UNL11      -0.1493
     52 N          -5.1803   -4.3969  -10.3524 N.2     1  UNL11      -0.1493
     53 N          -5.6734   -5.3891   -9.7227 N.2     1  UNL11      -0.1493
     54 C          -9.0495    2.1382   -3.1739 C.2     1  UNL11       0.3445
     55 O          -9.4084    3.1320   -3.7769 O.2     1  UNL11      -0.2445
     56 C          -7.3137   -0.2256   -9.0324 C.2     1  UNL11       0.3445
     57 O          -8.0946    0.6811   -9.2523 O.2     1  UNL11      -0.2445
     58 O          -8.0936    1.3082   -3.6510 O.3     1  UNL11      -0.4222
     59 H          -7.8720   -0.4023   -5.6307 H       1  UNL11       0.0692
     60 O          -6.5685   -0.2729   -7.9058 O.3     1  UNL11      -0.4207
     61 H          -8.3150   -6.1082    2.9120 H       1  UNL11       0.0618
     62 H          -2.3203   -9.1980   -8.6599 H       1  UNL11       0.0618
@<TRIPOS>BOND
     1     1     2   ar
     2     1     6   ar
     3     1    58    1
     4     2     3   ar
     5     2    59    1
     6     3     4   ar
     7     3    60    1
     8     4     5   ar
     9     4    29    1
    10     5     6   ar
    11     5     7    1
    12     6     8    1
    13     9    10   ar
    14     9    14   ar
    15     9    15    1
    16    10    11   ar
    17    10    52    1
    18    11    12   ar
    19    11    16    1
    20    12    13   ar
    21    12    17    1
    22    13    14   ar
    23    13    18    1
    24    14    56    1
    25    19    20   ar
    26    19    24   ar
    27    19    51    1
    28    20    21   ar
    29    20    25    1
    30    21    22   ar
    31    21    54    1
    32    22    23   ar
    33    22    26    1
    34    23    24   ar
    35    23    27    1
    36    24    28    1
    37    30    31   ar
    38    30    35   ar
    39    30    36    1
    40    31    32   ar
    41    31    37    1
    42    32    33   ar
    43    32    62    1
    44    33    34   ar
    45    33    38    1
    46    34    35   ar
    47    34    39    1
    48    35    53    1
    49    40    41   ar
    50    40    45   ar
    51    40    46    1
    52    41    42   ar
    53    41    47    1
    54    42    43   ar
    55    42    50    1
    56    43    44   ar
    57    43    48    1
    58    44    45   ar
    59    44    49    1
    60    45    61    1
    61    50    51    2
    62    52    53    2
    63    54    55    2
    64    54    58    1
    65    56    57    2
    66    56    60    1
