@<TRIPOS>MOLECULE
*****
 62 66 0 0 0
SMALL
GASTEIGER

@<TRIPOS>ATOM
      1 C          -1.1289    2.2785   -0.2234 C.ar    1  UNL11       0.0883
      2 C           0.2589    2.2940   -0.0735 C.ar    1  UNL11      -0.0059
      3 C           0.9318    3.5043    0.1094 C.ar    1  UNL11       0.1065
      4 C           0.2066    4.7026    0.1510 C.ar    1  UNL11       0.0682
      5 C          -1.1789    4.6833   -0.0061 C.ar    1  UNL11      -0.0392
      6 C          -1.8461    3.4752   -0.1968 C.ar    1  UNL11      -0.0330
      7 H           0.8176    1.3605   -0.0997 H       1  UNL11       0.0662
      8 H          -1.7426    5.6125    0.0208 H       1  UNL11       0.0633
      9 H          -2.9270    3.4691   -0.3194 H       1  UNL11       0.0640
     10 CL          0.9933    6.2296    0.3931 Cl      1  UNL11      -0.0813
     11 N           2.2311    3.4987    0.2619 N.2     1  UNL11      -0.1478
     12 C           4.9431    2.4147   -0.6209 C.ar    1  UNL11      -0.0311
     13 C           6.3260    2.4817   -0.4628 C.ar    1  UNL11      -0.0172
     14 C           6.9603    3.7193   -0.3680 C.ar    1  UNL11       0.1321
     15 C           6.2050    4.8940   -0.4078 C.ar    1  UNL11      -0.0172
     16 C           4.8221    4.8283   -0.5661 C.ar    1  UNL11      -0.0311
     17 C           4.1889    3.5883   -0.6700 C.ar    1  UNL11       0.0864
     18 H           4.4556    1.4458   -0.7015 H       1  UNL11       0.0640
     19 H           6.9110    1.5665   -0.4182 H       1  UNL11       0.0655
     20 H           6.6889    5.8627   -0.3129 H       1  UNL11       0.0655
     21 H           4.2394    5.7461   -0.6019 H       1  UNL11       0.0640
     22 N           2.8933    3.5279   -0.8268 N.2     1  UNL11      -0.1493
     23 C          -4.1022   -2.9818    0.1224 C.ar    1  UNL11       0.1321
     24 C          -2.7152   -2.9657    0.2595 C.ar    1  UNL11      -0.0172
     25 C          -2.0446   -1.7584    0.4455 C.ar    1  UNL11      -0.0311
     26 C          -2.7607   -0.5603    0.4798 C.ar    1  UNL11       0.0864
     27 C          -4.1491   -0.5746    0.3339 C.ar    1  UNL11      -0.0311
     28 C          -4.8185   -1.7825    0.1477 C.ar    1  UNL11      -0.0172
     29 H          -2.1551   -3.8968    0.2265 H       1  UNL11       0.0655
     30 H          -0.9630   -1.7541    0.5594 H       1  UNL11       0.0640
     31 H          -4.7125    0.3554    0.3591 H       1  UNL11       0.0640
     32 H          -5.8980   -1.7839    0.0203 H       1  UNL11       0.0655
     33 N          -2.1339    0.5713    0.6638 N.2     1  UNL11      -0.1493
     34 N          -1.7544    1.1463   -0.4083 N.2     1  UNL11      -0.1492
     35 O          -4.7351   -4.1924   -0.0818 O.3     1  UNL11      -0.4223
     36 O          -6.3534   -3.9977    1.4763 O.2     1  UNL11      -0.2445
     37 C          -7.3956   -8.4314   -0.7116 C.ar    1  UNL11      -0.0617
     38 C          -6.2700   -7.8975   -1.3338 C.ar    1  UNL11      -0.0610
     39 C          -5.7620   -6.6657   -0.9235 C.ar    1  UNL11      -0.0478
     40 C          -6.3753   -5.9543    0.1149 C.ar    1  UNL11       0.0594
     41 C          -7.5059   -6.5002    0.7328 C.ar    1  UNL11      -0.0478
     42 C          -8.0133   -7.7319    0.3220 C.ar    1  UNL11      -0.0610
     43 H          -7.7913   -9.3922   -1.0321 H       1  UNL11       0.0618
     44 H          -5.7863   -8.4419   -2.1412 H       1  UNL11       0.0618
     45 H          -4.8826   -6.2665   -1.4228 H       1  UNL11       0.0626
     46 H          -7.9996   -5.9664    1.5413 H       1  UNL11       0.0626
     47 H          -8.8924   -8.1468    0.8094 H       1  UNL11       0.0618
     48 C          -5.8407   -4.6249    0.5687 C.2     1  UNL11       0.3444
     49 O           8.3298    3.7514   -0.1903 O.3     1  UNL11      -0.4223
     50 C          11.0164    3.5932    0.6076 C.ar    1  UNL11      -0.0478
     51 C          12.3528    3.5110    0.9961 C.ar    1  UNL11      -0.0610
     52 C          13.3200    4.2648    0.3360 C.ar    1  UNL11      -0.0617
     53 C          12.9494    5.1015   -0.7136 C.ar    1  UNL11      -0.0610
     54 C          11.6133    5.1842   -1.1025 C.ar    1  UNL11      -0.0478
     55 C          10.6331    4.4312   -0.4467 C.ar    1  UNL11       0.0594
     56 H          10.2771    2.9968    1.1364 H       1  UNL11       0.0626
     57 H          12.6400    2.8573    1.8161 H       1  UNL11       0.0618
     58 H          14.3622    4.2002    0.6397 H       1  UNL11       0.0618
     59 H          13.7028    5.6911   -1.2304 H       1  UNL11       0.0618
     60 H          11.3399    5.8422   -1.9239 H       1  UNL11       0.0626
     61 O           8.8463    5.2457   -1.7981 O.2     1  UNL11      -0.2445
     62 C           9.1966    4.5318   -0.8773 C.2     1  UNL11       0.3444
@<TRIPOS>BOND
     1     1     2   ar
     2     1     6   ar
     3     1    34    1
     4     2     3   ar
     5     2     7    1
     6     3     4   ar
     7     3    11    1
     8     4     5   ar
     9     4    10    1
    10     5     6   ar
    11     5     8    1
    12     6     9    1
    13    11    22    2
    14    12    13   ar
    15    12    17   ar
    16    12    18    1
    17    13    14   ar
    18    13    19    1
    19    14    15   ar
    20    14    49    1
    21    15    16   ar
    22    15    20    1
    23    16    17   ar
    24    16    21    1
    25    17    22    1
    26    23    24   ar
    27    23    28   ar
    28    23    35    1
    29    24    25   ar
    30    24    29    1
    31    25    26   ar
    32    25    30    1
    33    26    27   ar
    34    26    33    1
    35    27    28   ar
    36    27    31    1
    37    28    32    1
    38    33    34    2
    39    35    48    1
    40    36    48    2
    41    37    38   ar
    42    37    42   ar
    43    37    43    1
    44    38    39   ar
    45    38    44    1
    46    39    40   ar
    47    39    45    1
    48    40    41   ar
    49    40    48    1
    50    41    42   ar
    51    41    46    1
    52    42    47    1
    53    49    62    1
    54    50    51   ar
    55    50    55   ar
    56    50    56    1
    57    51    52   ar
    58    51    57    1
    59    52    53   ar
    60    52    58    1
    61    53    54   ar
    62    53    59    1
    63    54    55   ar
    64    54    60    1
    65    55    62    1
    66    61    62    2
