@<TRIPOS>MOLECULE
*****
 92 96 0 0 0
SMALL
GASTEIGER

@<TRIPOS>ATOM
      1 C          -0.5440    1.3536    0.0074 C.ar    1  UNL1        0.0883
      2 C           0.8455    1.3970   -0.1361 C.ar    1  UNL1       -0.0059
      3 C           1.4992    2.6279   -0.2533 C.ar    1  UNL1        0.1065
      4 C           0.7535    3.8146   -0.2357 C.ar    1  UNL1        0.0682
      5 C          -0.6308    3.7658   -0.0849 C.ar    1  UNL1       -0.0392
      6 C          -1.2781    2.5399    0.0409 C.ar    1  UNL1       -0.0330
      7 H           1.4192    0.4725   -0.1560 H       1  UNL1        0.0662
      8 H          -1.2094    4.6857   -0.0648 H       1  UNL1        0.0633
      9 H          -2.3590    2.5116    0.1611 H       1  UNL1        0.0640
     10 CL          1.5121    5.3667   -0.3967 Cl      1  UNL1       -0.0813
     11 N           2.7984    2.6670   -0.4066 N.2     1  UNL1       -0.1478
     12 C           5.6861    2.1553    0.0850 C.ar    1  UNL1       -0.0311
     13 C           7.0064    2.5806   -0.0549 C.ar    1  UNL1       -0.0172
     14 C           7.3627    3.8906    0.2648 C.ar    1  UNL1        0.1321
     15 C           6.3939    4.7686    0.7597 C.ar    1  UNL1       -0.0172
     16 C           5.0722    4.3467    0.8934 C.ar    1  UNL1       -0.0311
     17 C           4.7123    3.0430    0.5477 C.ar    1  UNL1        0.0864
     18 H           5.4181    1.1339   -0.1744 H       1  UNL1        0.0640
     19 H           7.7600    1.8885   -0.4225 H       1  UNL1        0.0655
     20 H           6.6598    5.7831    1.0445 H       1  UNL1        0.0655
     21 H           4.3226    5.0397    1.2685 H       1  UNL1        0.0640
     22 N           3.4684    2.6617    0.6781 N.2     1  UNL1       -0.1493
     23 C          -4.4468   -3.1990   -0.5231 C.ar    1  UNL1        0.1321
     24 C          -3.1078   -3.5098   -0.2861 C.ar    1  UNL1       -0.0172
     25 C          -2.1209   -2.5361   -0.4332 C.ar    1  UNL1       -0.0311
     26 C          -2.4717   -1.2403   -0.8180 C.ar    1  UNL1        0.0864
     27 C          -3.8079   -0.9347   -1.0827 C.ar    1  UNL1       -0.0311
     28 C          -4.7926   -1.9114   -0.9434 C.ar    1  UNL1       -0.0172
     29 H          -2.8317   -4.5154    0.0211 H       1  UNL1        0.0655
     30 H          -1.0809   -2.7886   -0.2393 H       1  UNL1        0.0640
     31 H          -4.0868    0.0676   -1.3997 H       1  UNL1        0.0640
     32 H          -5.8258   -1.6599   -1.1667 H       1  UNL1        0.0655
     33 N          -1.5610   -0.3114   -0.9543 N.2     1  UNL1       -0.1493
     34 N          -1.1701    0.2136    0.1398 N.2     1  UNL1       -0.1492
     35 O          -5.3860   -4.2041   -0.3687 O.3     1  UNL1       -0.4223
     36 O          -7.0764   -3.0374    0.5737 O.2     1  UNL1       -0.2445
     37 C          -8.7673   -7.8079    0.6896 C.ar    1  UNL1       -0.0473
     38 C          -7.5182   -7.7933    0.0657 C.ar    1  UNL1       -0.0578
     39 C          -6.8344   -6.5948   -0.1284 C.ar    1  UNL1       -0.0475
     40 C          -7.3863   -5.3832    0.2986 C.ar    1  UNL1        0.0594
     41 C          -8.6494   -5.3961    0.8990 C.ar    1  UNL1       -0.0475
     42 C          -9.3299   -6.5966    1.1002 C.ar    1  UNL1       -0.0578
     43 H          -7.0548   -8.7248   -0.2509 H       1  UNL1        0.0620
     44 H          -5.8539   -6.6193   -0.5976 H       1  UNL1        0.0626
     45 H          -9.1025   -4.4681    1.2395 H       1  UNL1        0.0626
     46 H         -10.2934   -6.5781    1.6026 H       1  UNL1        0.0620
     47 C          -6.6298   -4.0901    0.1587 C.2     1  UNL1        0.3444
     48 O           8.6871    4.2636    0.1150 O.3     1  UNL1       -0.4223
     49 C          11.4809    4.4969   -0.0988 C.ar    1  UNL1       -0.0475
     50 C          12.8618    4.5907   -0.2659 C.ar    1  UNL1       -0.0578
     51 C          13.4393    5.7345   -0.8216 C.ar    1  UNL1       -0.0473
     52 C          12.6051    6.7926   -1.1964 C.ar    1  UNL1       -0.0578
     53 C          11.2245    6.7012   -1.0249 C.ar    1  UNL1       -0.0475
     54 C          10.6448    5.5485   -0.4870 C.ar    1  UNL1        0.0594
     55 H          11.0624    3.5864    0.3225 H       1  UNL1        0.0626
     56 H          13.4889    3.7508    0.0245 H       1  UNL1        0.0620
     57 H          13.0138    7.6946   -1.6419 H       1  UNL1        0.0620
     58 H          10.5979    7.5346   -1.3335 H       1  UNL1        0.0626
     59 O           8.4122    6.3349   -0.7436 O.2     1  UNL1       -0.2445
     60 C           9.1491    5.4445   -0.3645 C.2     1  UNL1        0.3444
     61 C          -9.4455   -9.1425    0.9863 C.3     1  UNL1       -0.0277
     62 H          -9.3134   -9.3662    2.0477 H       1  UNL1        0.0313
     63 H          -8.9348   -9.9362    0.4351 H       1  UNL1        0.0313
     64 C         -10.9511   -9.2036    0.6428 C.3     1  UNL1       -0.0491
     65 H         -11.4975   -8.4629    1.2306 H       1  UNL1        0.0268
     66 H         -11.0992   -8.9662   -0.4137 H       1  UNL1        0.0268
     67 C         -11.5199  -10.6074    0.9479 C.3     1  UNL1       -0.0530
     68 H         -11.3033  -10.8677    1.9874 H       1  UNL1        0.0265
     69 H         -11.0246  -11.3474    0.3140 H       1  UNL1        0.0265
     70 C         -13.0450  -10.6694    0.7212 C.3     1  UNL1       -0.0559
     71 H         -13.5421   -9.9469    1.3733 H       1  UNL1        0.0263
     72 H         -13.2798  -10.3994   -0.3113 H       1  UNL1        0.0263
     73 C         -13.5949  -12.0777    1.0167 C.3     1  UNL1       -0.0653
     74 H         -13.3314  -12.3921    2.0295 H       1  UNL1        0.0230
     75 H         -14.6836  -12.0855    0.9290 H       1  UNL1        0.0230
     76 H         -13.1886  -12.8059    0.3108 H       1  UNL1        0.0230
     77 C          14.9492    5.7596   -1.0585 C.3     1  UNL1       -0.0277
     78 H          15.1501    5.3218   -2.0393 H       1  UNL1        0.0313
     79 H          15.4306    5.1099   -0.3228 H       1  UNL1        0.0313
     80 C          15.6201    7.1509   -0.9834 C.3     1  UNL1       -0.0491
     81 H          15.2086    7.8057   -1.7541 H       1  UNL1        0.0268
     82 H          15.4155    7.6055   -0.0108 H       1  UNL1        0.0268
     83 C          17.1455    7.0406   -1.1992 C.3     1  UNL1       -0.0530
     84 H          17.3404    6.5802   -2.1715 H       1  UNL1        0.0265
     85 H          17.5793    6.3913   -0.4343 H       1  UNL1        0.0265
     86 C          17.8255    8.4251   -1.1443 C.3     1  UNL1       -0.0559
     87 H          17.3721    9.0902   -1.8835 H       1  UNL1        0.0263
     88 H          17.6711    8.8721   -0.1592 H       1  UNL1        0.0263
     89 C          19.3363    8.3184   -1.4237 C.3     1  UNL1       -0.0653
     90 H          19.8038    9.3033   -1.3565 H       1  UNL1        0.0230
     91 H          19.8187    7.6594   -0.6980 H       1  UNL1        0.0230
     92 H          19.5159    7.9223   -2.4260 H       1  UNL1        0.0230
@<TRIPOS>BOND
     1     1    34    1
     2     1     6   ar
     3     1     2   ar
     4     2     7    1
     5     2     3   ar
     6     3     4   ar
     7     3    11    1
     8     4     5   ar
     9     4    10    1
    10     5     6   ar
    11     5     8    1
    12     6     9    1
    13    11    22    2
    14    12    18    1
    15    12    17   ar
    16    12    13   ar
    17    13    19    1
    18    13    14   ar
    19    14    15   ar
    20    14    48    1
    21    15    16   ar
    22    15    20    1
    23    16    17   ar
    24    16    21    1
    25    17    22    1
    26    23    35    1
    27    23    24   ar
    28    23    28   ar
    29    24    29    1
    30    24    25   ar
    31    25    30    1
    32    25    26   ar
    33    26    27   ar
    34    26    33    1
    35    27    28   ar
    36    27    31    1
    37    28    32    1
    38    33    34    2
    39    35    47    1
    40    36    47    2
    41    37    38   ar
    42    37    42   ar
    43    37    61    1
    44    38    39   ar
    45    38    43    1
    46    39    44    1
    47    39    40   ar
    48    40    47    1
    49    40    41   ar
    50    41    45    1
    51    41    42   ar
    52    42    46    1
    53    48    60    1
    54    49    50   ar
    55    49    54   ar
    56    49    55    1
    57    50    51   ar
    58    50    56    1
    59    51    77    1
    60    51    52   ar
    61    52    57    1
    62    52    53   ar
    63    53    58    1
    64    53    54   ar
    65    54    60    1
    66    59    60    2
    67    61    63    1
    68    61    64    1
    69    61    62    1
    70    64    66    1
    71    64    67    1
    72    64    65    1
    73    67    69    1
    74    67    70    1
    75    67    68    1
    76    70    72    1
    77    70    73    1
    78    70    71    1
    79    73    76    1
    80    73    75    1
    81    73    74    1
    82    77    78    1
    83    77    80    1
    84    77    79    1
    85    80    81    1
    86    80    83    1
    87    80    82    1
    88    83    84    1
    89    83    86    1
    90    83    85    1
    91    86    87    1
    92    86    89    1
    93    86    88    1
    94    89    92    1
    95    89    90    1
    96    89    91    1
