@<TRIPOS>MOLECULE
*****
 98 102 0 0 0
SMALL
GASTEIGER

@<TRIPOS>ATOM
      1 C          -0.7293    1.6403   -0.5217 C.ar    1  UNL1        0.0883
      2 C           0.6216    1.6631   -0.1750 C.ar    1  UNL1       -0.0059
      3 C           1.2145    2.8582    0.2369 C.ar    1  UNL1        0.1065
      4 C           0.4454    4.0278    0.3111 C.ar    1  UNL1        0.0682
      5 C          -0.9012    3.9998   -0.0457 C.ar    1  UNL1       -0.0392
      6 C          -1.4880    2.8098   -0.4653 C.ar    1  UNL1       -0.0330
      7 H           1.2107    0.7489   -0.2202 H       1  UNL1        0.0662
      8 H          -1.4988    4.9060    0.0098 H       1  UNL1        0.0633
      9 H          -2.5436    2.7914   -0.7275 H       1  UNL1        0.0640
     10 CL          1.1254    5.5330    0.8399 Cl      1  UNL1       -0.0813
     11 N           2.4875    2.8760    0.5327 N.2     1  UNL1       -0.1478
     12 C           5.4878    2.4091   -0.5174 C.ar    1  UNL1       -0.0311
     13 C           6.8230    2.7903   -0.4052 C.ar    1  UNL1       -0.0172
     14 C           7.1457    4.0932   -0.0301 C.ar    1  UNL1        0.1321
     15 C           6.1372    5.0048    0.2822 C.ar    1  UNL1       -0.0172
     16 C           4.8035    4.6275    0.1618 C.ar    1  UNL1       -0.0311
     17 C           4.4769    3.3331   -0.2498 C.ar    1  UNL1        0.0864
     18 H           5.2399    1.4049   -0.8534 H       1  UNL1        0.0640
     19 H           7.6114    2.0857   -0.6576 H       1  UNL1        0.0655
     20 H           6.3870    6.0233    0.5689 H       1  UNL1        0.0655
     21 H           4.0217    5.3569    0.3570 H       1  UNL1        0.0640
     22 N           3.2326    3.0202   -0.4900 N.2     1  UNL1       -0.1493
     23 C          -4.2854   -3.2704   -0.2895 C.ar    1  UNL1        0.1321
     24 C          -2.9562   -3.4736    0.0730 C.ar    1  UNL1       -0.0172
     25 C          -2.0943   -2.3866    0.1750 C.ar    1  UNL1       -0.0311
     26 C          -2.5667   -1.1013   -0.0889 C.ar    1  UNL1        0.0864
     27 C          -3.8905   -0.9047   -0.4895 C.ar    1  UNL1       -0.0311
     28 C          -4.7519   -1.9931   -0.5935 C.ar    1  UNL1       -0.0172
     29 H          -2.6077   -4.4710    0.3291 H       1  UNL1        0.0655
     30 H          -1.0698   -2.5399    0.5059 H       1  UNL1        0.0640
     31 H          -4.2645    0.0990   -0.6784 H       1  UNL1        0.0640
     32 H          -5.7954   -1.8384   -0.8567 H       1  UNL1        0.0655
     33 N          -1.8044   -0.0743    0.1624 N.2     1  UNL1       -0.1493
     34 N          -1.3041    0.5155   -0.8480 N.2     1  UNL1       -0.1492
     35 O          -5.1686   -4.3169   -0.1880 O.3     1  UNL1       -0.4223
     36 O          -5.7402   -3.8166    1.9303 O.2     1  UNL1       -0.2445
     37 C          -8.2293   -8.1222    1.0947 C.ar    1  UNL1       -0.0473
     38 C          -7.4978   -7.8129   -0.0524 C.ar    1  UNL1       -0.0578
     39 C          -6.7255   -6.6561   -0.1046 C.ar    1  UNL1       -0.0475
     40 C          -6.6569   -5.8038    1.0012 C.ar    1  UNL1        0.0594
     41 C          -7.3668   -6.1319    2.1595 C.ar    1  UNL1       -0.0475
     42 C          -8.1529   -7.2796    2.2043 C.ar    1  UNL1       -0.0578
     43 H          -7.5496   -8.4610   -0.9242 H       1  UNL1        0.0620
     44 H          -6.1829   -6.4236   -1.0175 H       1  UNL1        0.0626
     45 H          -7.3209   -5.4857    3.0329 H       1  UNL1        0.0626
     46 H          -8.7138   -7.5096    3.1074 H       1  UNL1        0.0620
     47 C          -5.8309   -4.5553    0.9669 C.2     1  UNL1        0.3444
     48 O           8.4632    4.4939   -0.0828 O.3     1  UNL1       -0.4223
     49 C          11.2596    4.8140   -0.2805 C.ar    1  UNL1       -0.0475
     50 C          12.6392    4.9177   -0.4512 C.ar    1  UNL1       -0.0578
     51 C          13.1683    5.7623   -1.4282 C.ar    1  UNL1       -0.0473
     52 C          12.3033    6.5060   -2.2319 C.ar    1  UNL1       -0.0578
     53 C          10.9268    6.4164   -2.0496 C.ar    1  UNL1       -0.0475
     54 C          10.3907    5.5623   -1.0810 C.ar    1  UNL1        0.0594
     55 H          10.8692    4.1467    0.4840 H       1  UNL1        0.0626
     56 H          13.3027    4.3351    0.1841 H       1  UNL1        0.0620
     57 H          12.6996    7.1763   -2.9908 H       1  UNL1        0.0620
     58 H          10.2693    7.0103   -2.6801 H       1  UNL1        0.0626
     59 O           8.1437    6.0663   -1.6646 O.2     1  UNL1       -0.2445
     60 C           8.9018    5.4371   -0.9497 C.2     1  UNL1        0.3444
     61 C          -9.1267   -9.3468    1.1303 C.3     1  UNL1       -0.0277
     62 H          -9.1841   -9.7151    2.1581 H       1  UNL1        0.0313
     63 H          -8.6858  -10.1529    0.5374 H       1  UNL1        0.0313
     64 C         -10.5587   -9.0541    0.6322 C.3     1  UNL1       -0.0491
     65 H         -11.1669   -9.9223    0.8739 H       1  UNL1        0.0268
     66 H         -10.9712   -8.2014    1.1783 H       1  UNL1        0.0268
     67 C         -10.6117   -8.7834   -0.8910 C.3     1  UNL1       -0.0528
     68 H         -10.2302   -9.6480   -1.4395 H       1  UNL1        0.0265
     69 H          -9.9502   -7.9460   -1.1197 H       1  UNL1        0.0265
     70 C         -12.0125   -8.3968   -1.4224 C.3     1  UNL1       -0.0533
     71 H         -12.4419   -7.5953   -0.8164 H       1  UNL1        0.0265
     72 H         -11.8667   -7.9774   -2.4213 H       1  UNL1        0.0265
     73 C         -13.0148   -9.5690   -1.5662 C.3     1  UNL1       -0.0559
     74 H         -12.5238  -10.4421   -2.0033 H       1  UNL1        0.0263
     75 H         -13.7863   -9.2564   -2.2741 H       1  UNL1        0.0263
     76 C         -13.7237   -9.9600   -0.2532 C.3     1  UNL1       -0.0653
     77 H         -13.9726   -9.0763    0.3390 H       1  UNL1        0.0230
     78 H         -14.6514  -10.4906   -0.4768 H       1  UNL1        0.0230
     79 H         -13.1089  -10.6294    0.3480 H       1  UNL1        0.0230
     80 C          14.6730    5.8860   -1.6048 C.3     1  UNL1       -0.0277
     81 H          14.9009    6.4003   -2.5418 H       1  UNL1        0.0313
     82 H          15.0887    4.8800   -1.7016 H       1  UNL1        0.0313
     83 C          15.3942    6.6034   -0.4383 C.3     1  UNL1       -0.0491
     84 H          15.1622    6.1154    0.5112 H       1  UNL1        0.0268
     85 H          16.4682    6.4772   -0.5964 H       1  UNL1        0.0268
     86 C          15.1086    8.1243   -0.3449 C.3     1  UNL1       -0.0528
     87 H          15.1255    8.5666   -1.3441 H       1  UNL1        0.0265
     88 H          15.9300    8.5764    0.2150 H       1  UNL1        0.0265
     89 C          13.7779    8.4659    0.3702 C.3     1  UNL1       -0.0533
     90 H          12.9411    8.0378   -0.1767 H       1  UNL1        0.0265
     91 H          13.7643    8.0215    1.3680 H       1  UNL1        0.0265
     92 C          13.5243    9.9851    0.4711 C.3     1  UNL1       -0.0559
     93 H          13.6420   10.4505   -0.5110 H       1  UNL1        0.0263
     94 H          12.4871   10.1448    0.7771 H       1  UNL1        0.0263
     95 C          14.4451   10.6796    1.4930 C.3     1  UNL1       -0.0653
     96 H          14.1681   11.7315    1.5914 H       1  UNL1        0.0230
     97 H          14.3532   10.2093    2.4750 H       1  UNL1        0.0230
     98 H          15.4896   10.6337    1.1796 H       1  UNL1        0.0230
@<TRIPOS>BOND
     1     1     2   ar
     2     1     6   ar
     3     1    34    1
     4     2     3   ar
     5     2     7    1
     6     3     4   ar
     7     3    11    1
     8     4     5   ar
     9     4    10    1
    10     5     6   ar
    11     5     8    1
    12     6     9    1
    13    11    22    2
    14    12    13   ar
    15    12    17   ar
    16    12    18    1
    17    13    14   ar
    18    13    19    1
    19    14    15   ar
    20    14    48    1
    21    15    16   ar
    22    15    20    1
    23    16    17   ar
    24    16    21    1
    25    17    22    1
    26    23    24   ar
    27    23    28   ar
    28    23    35    1
    29    24    25   ar
    30    24    29    1
    31    25    26   ar
    32    25    30    1
    33    26    27   ar
    34    26    33    1
    35    27    28   ar
    36    27    31    1
    37    28    32    1
    38    33    34    2
    39    35    47    1
    40    36    47    2
    41    37    38   ar
    42    37    42   ar
    43    37    61    1
    44    38    39   ar
    45    38    43    1
    46    39    40   ar
    47    39    44    1
    48    40    41   ar
    49    40    47    1
    50    41    42   ar
    51    41    45    1
    52    42    46    1
    53    48    60    1
    54    49    50   ar
    55    49    54   ar
    56    49    55    1
    57    50    51   ar
    58    50    56    1
    59    51    52   ar
    60    51    80    1
    61    52    53   ar
    62    52    57    1
    63    53    54   ar
    64    53    58    1
    65    54    60    1
    66    59    60    2
    67    61    62    1
    68    61    63    1
    69    61    64    1
    70    64    65    1
    71    64    66    1
    72    64    67    1
    73    67    68    1
    74    67    69    1
    75    67    70    1
    76    70    71    1
    77    70    72    1
    78    70    73    1
    79    73    74    1
    80    73    75    1
    81    73    76    1
    82    76    77    1
    83    76    78    1
    84    76    79    1
    85    80    81    1
    86    80    82    1
    87    80    83    1
    88    83    84    1
    89    83    85    1
    90    83    86    1
    91    86    87    1
    92    86    88    1
    93    86    89    1
    94    89    90    1
    95    89    91    1
    96    89    92    1
    97    92    93    1
    98    92    94    1
    99    92    95    1
   100    95    96    1
   101    95    97    1
   102    95    98    1
