@<TRIPOS>MOLECULE
*****
 104 108 0 0 0
SMALL
GASTEIGER

@<TRIPOS>ATOM
      1 C          -0.9297    1.8197   -0.2584 C.ar    1  UNL1        0.0883
      2 C           0.4659    1.8303   -0.2012 C.ar    1  UNL1       -0.0059
      3 C           1.1554    3.0440   -0.1301 C.ar    1  UNL1        0.1065
      4 C           0.4402    4.2491   -0.1198 C.ar    1  UNL1        0.0682
      5 C          -0.9519    4.2340   -0.1904 C.ar    1  UNL1       -0.0392
      6 C          -1.6361    3.0232   -0.2639 C.ar    1  UNL1       -0.0330
      7 H           1.0154    0.8910   -0.1933 H       1  UNL1        0.0662
      8 H          -1.5075    5.1684   -0.1859 H       1  UNL1        0.0633
      9 H          -2.7229    3.0201   -0.3132 H       1  UNL1        0.0640
     10 CL          1.2480    5.7813   -0.0203 Cl      1  UNL1       -0.0813
     11 N           2.4615    3.0454   -0.0523 N.2     1  UNL1       -0.1478
     12 C           5.2422    2.1656   -0.8175 C.ar    1  UNL1       -0.0311
     13 C           6.6112    2.4258   -0.7762 C.ar    1  UNL1       -0.0172
     14 C           7.0877    3.7059   -1.0547 C.ar    1  UNL1        0.1321
     15 C           6.1915    4.7342   -1.3539 C.ar    1  UNL1       -0.0172
     16 C           4.8230    4.4761   -1.3919 C.ar    1  UNL1       -0.0311
     17 C           4.3456    3.1922   -1.1218 C.ar    1  UNL1        0.0864
     18 H           4.8769    1.1634   -0.6046 H       1  UNL1        0.0640
     19 H           7.3074    1.6276   -0.5310 H       1  UNL1        0.0655
     20 H           6.5562    5.7383   -1.5542 H       1  UNL1        0.0655
     21 H           4.1295    5.2801   -1.6273 H       1  UNL1        0.0640
     22 N           3.0612    2.9575   -1.1736 N.2     1  UNL1       -0.1493
     23 C          -4.3115   -3.1157    0.6679 C.ar    1  UNL1        0.1321
     24 C          -2.9293   -3.2617    0.5609 C.ar    1  UNL1       -0.0172
     25 C          -2.1027   -2.1400    0.6040 C.ar    1  UNL1       -0.0311
     26 C          -2.6604   -0.8668    0.7385 C.ar    1  UNL1        0.0864
     27 C          -4.0456   -0.7205    0.8360 C.ar    1  UNL1       -0.0311
     28 C          -4.8707   -1.8426    0.7959 C.ar    1  UNL1       -0.0172
     29 H          -2.4937   -4.2518    0.4515 H       1  UNL1        0.0655
     30 H          -1.0244   -2.2613    0.5285 H       1  UNL1        0.0640
     31 H          -4.4859    0.2684    0.9413 H       1  UNL1        0.0640
     32 H          -5.9488   -1.7222    0.8645 H       1  UNL1        0.0655
     33 N          -1.8910    0.1878    0.8008 N.2     1  UNL1       -0.1493
     34 N          -1.5803    0.6884   -0.3291 N.2     1  UNL1       -0.1492
     35 O          -5.1107   -4.2410    0.6273 O.3     1  UNL1       -0.4223
     36 O          -6.1850   -3.9131    2.5800 O.2     1  UNL1       -0.2445
     37 C          -8.2396   -8.2071    0.8686 C.ar    1  UNL1       -0.0473
     38 C          -7.3161   -7.7561   -0.0759 C.ar    1  UNL1       -0.0578
     39 C          -6.5988   -6.5809    0.1434 C.ar    1  UNL1       -0.0475
     40 C          -6.7977   -5.8340    1.3096 C.ar    1  UNL1        0.0594
     41 C          -7.7303   -6.2857    2.2484 C.ar    1  UNL1       -0.0475
     42 C          -8.4418   -7.4641    2.0320 C.ar    1  UNL1       -0.0578
     43 H          -7.1475   -8.3216   -0.9895 H       1  UNL1        0.0620
     44 H          -5.8829   -6.2533   -0.6063 H       1  UNL1        0.0626
     45 H          -7.9041   -5.7226    3.1621 H       1  UNL1        0.0626
     46 H          -9.1569   -7.8025    2.7781 H       1  UNL1        0.0620
     47 C          -6.0256   -4.5709    1.5689 C.2     1  UNL1        0.3444
     48 O           8.4466    3.9454   -1.0003 O.3     1  UNL1       -0.4223
     49 C          11.1541    4.4514   -0.4242 C.ar    1  UNL1       -0.0475
     50 C          12.4968    4.7017   -0.1455 C.ar    1  UNL1       -0.0578
     51 C          13.3258    5.2671   -1.1149 C.ar    1  UNL1       -0.0473
     52 C          12.7968    5.5783   -2.3679 C.ar    1  UNL1       -0.0578
     53 C          11.4537    5.3320   -2.6457 C.ar    1  UNL1       -0.0475
     54 C          10.6180    4.7666   -1.6776 C.ar    1  UNL1        0.0594
     55 H          10.5284    4.0139    0.3498 H       1  UNL1        0.0626
     56 H          12.8948    4.4574    0.8369 H       1  UNL1        0.0620
     57 H          13.4289    6.0241   -3.1323 H       1  UNL1        0.0620
     58 H          11.0603    5.5885   -3.6263 H       1  UNL1        0.0626
     59 O           8.6883    4.7871   -3.0760 O.2     1  UNL1       -0.2445
     60 C           9.1704    4.5143   -1.9926 C.2     1  UNL1        0.3444
     61 C          -9.0102   -9.5005    0.6410 C.3     1  UNL1       -0.0277
     62 H          -8.8664  -10.1505    1.5075 H       1  UNL1        0.0313
     63 H          -8.5999  -10.0370   -0.2183 H       1  UNL1        0.0313
     64 C         -10.5252   -9.2870    0.4296 C.3     1  UNL1       -0.0491
     65 H         -11.0079  -10.2648    0.3564 H       1  UNL1        0.0268
     66 H         -10.9509   -8.7827    1.3006 H       1  UNL1        0.0268
     67 C         -10.8325   -8.4725   -0.8462 C.3     1  UNL1       -0.0528
     68 H         -10.3910   -8.9712   -1.7128 H       1  UNL1        0.0265
     69 H         -10.3817   -7.4799   -0.7698 H       1  UNL1        0.0265
     70 C         -12.3549   -8.3278   -1.0548 C.3     1  UNL1       -0.0531
     71 H         -12.8085   -9.3196   -1.1287 H       1  UNL1        0.0265
     72 H         -12.7949   -7.8273   -0.1882 H       1  UNL1        0.0265
     73 C         -12.6741   -7.5213   -2.3310 C.3     1  UNL1       -0.0533
     74 H         -12.2342   -8.0211   -3.1979 H       1  UNL1        0.0265
     75 H         -12.2234   -6.5282   -2.2576 H       1  UNL1        0.0265
     76 C         -14.1976   -7.3821   -2.5350 C.3     1  UNL1       -0.0559
     77 H         -14.6409   -6.8793   -1.6718 H       1  UNL1        0.0263
     78 H         -14.6520   -8.3733   -2.6083 H       1  UNL1        0.0263
     79 C          14.7888    5.5486   -0.8034 C.3     1  UNL1       -0.0277
     80 H          15.3651    5.5998   -1.7307 H       1  UNL1        0.0313
     81 H          15.1979    4.7114   -0.2325 H       1  UNL1        0.0313
     82 C          14.9994    6.8488    0.0031 C.3     1  UNL1       -0.0491
     83 H          14.4422    6.7913    0.9416 H       1  UNL1        0.0268
     84 H          16.0584    6.9325    0.2598 H       1  UNL1        0.0268
     85 C          14.5663    8.1057   -0.7845 C.3     1  UNL1       -0.0528
     86 H          13.4957    8.0571   -0.9978 H       1  UNL1        0.0265
     87 H          15.0937    8.1367   -1.7414 H       1  UNL1        0.0265
     88 C          14.8663    9.3946    0.0090 C.3     1  UNL1       -0.0531
     89 H          14.3461    9.3606    0.9698 H       1  UNL1        0.0265
     90 H          15.9381    9.4555    0.2148 H       1  UNL1        0.0265
     91 C          14.4200   10.6476   -0.7738 C.3     1  UNL1       -0.0533
     92 H          14.9367   10.6797   -1.7366 H       1  UNL1        0.0265
     93 H          13.3474   10.5878   -0.9764 H       1  UNL1        0.0265
     94 C          14.7230   11.9385    0.0156 C.3     1  UNL1       -0.0559
     95 H          14.2094   11.9105    0.9799 H       1  UNL1        0.0263
     96 H          15.7955   12.0059    0.2147 H       1  UNL1        0.0263
     97 C         -14.5222   -6.5813   -3.8093 C.3     1  UNL1       -0.0653
     98 H         -14.1136   -7.0786   -4.6920 H       1  UNL1        0.0230
     99 H         -15.6037   -6.4938   -3.9348 H       1  UNL1        0.0230
    100 H         -14.1012   -5.5749   -3.7503 H       1  UNL1        0.0230
    101 C          14.2724   13.1889   -0.7618 C.3     1  UNL1       -0.0653
    102 H          13.1965   13.1596   -0.9495 H       1  UNL1        0.0230
    103 H          14.4960   14.0912   -0.1882 H       1  UNL1        0.0230
    104 H          14.7913   13.2548   -1.7210 H       1  UNL1        0.0230
@<TRIPOS>BOND
     1     1     2   ar
     2     1     6   ar
     3     1    34    1
     4     2     3   ar
     5     2     7    1
     6     3     4   ar
     7     3    11    1
     8     4     5   ar
     9     4    10    1
    10     5     6   ar
    11     5     8    1
    12     6     9    1
    13    11    22    2
    14    12    13   ar
    15    12    17   ar
    16    12    18    1
    17    13    14   ar
    18    13    19    1
    19    14    15   ar
    20    14    48    1
    21    15    16   ar
    22    15    20    1
    23    16    17   ar
    24    16    21    1
    25    17    22    1
    26    23    24   ar
    27    23    28   ar
    28    23    35    1
    29    24    25   ar
    30    24    29    1
    31    25    26   ar
    32    25    30    1
    33    26    27   ar
    34    26    33    1
    35    27    28   ar
    36    27    31    1
    37    28    32    1
    38    33    34    2
    39    35    47    1
    40    36    47    2
    41    37    38   ar
    42    37    42   ar
    43    37    61    1
    44    38    39   ar
    45    38    43    1
    46    39    40   ar
    47    39    44    1
    48    40    41   ar
    49    40    47    1
    50    41    42   ar
    51    41    45    1
    52    42    46    1
    53    48    60    1
    54    49    50   ar
    55    49    54   ar
    56    49    55    1
    57    50    51   ar
    58    50    56    1
    59    51    52   ar
    60    51    79    1
    61    52    53   ar
    62    52    57    1
    63    53    54   ar
    64    53    58    1
    65    54    60    1
    66    59    60    2
    67    61    62    1
    68    61    63    1
    69    61    64    1
    70    64    65    1
    71    64    66    1
    72    64    67    1
    73    67    68    1
    74    67    69    1
    75    67    70    1
    76    70    71    1
    77    70    72    1
    78    70    73    1
    79    73    74    1
    80    73    75    1
    81    73    76    1
    82    76    77    1
    83    76    78    1
    84    76    97    1
    85    79    80    1
    86    79    81    1
    87    79    82    1
    88    82    83    1
    89    82    84    1
    90    82    85    1
    91    85    86    1
    92    85    87    1
    93    85    88    1
    94    88    89    1
    95    88    90    1
    96    88    91    1
    97    91    92    1
    98    91    93    1
    99    91    94    1
   100    94    95    1
   101    94    96    1
   102    94   101    1
   103    97    98    1
   104    97    99    1
   105    97   100    1
   106   101   102    1
   107   101   103    1
   108   101   104    1
