@<TRIPOS>MOLECULE
*****
 110 114 0 0 0
SMALL
GASTEIGER

@<TRIPOS>ATOM
      1 C          -1.0791    2.2091    0.0415 C.ar    1  UNL11       0.0883
      2 C           0.3166    2.2348    0.0479 C.ar    1  UNL11      -0.0059
      3 C           0.9957    3.4543    0.1050 C.ar    1  UNL11       0.1065
      4 C           0.2696    4.6512    0.1661 C.ar    1  UNL11       0.0682
      5 C          -1.1243    4.6212    0.1540 C.ar    1  UNL11      -0.0392
      6 C          -1.7985    3.4040    0.0881 C.ar    1  UNL11      -0.0330
      7 H           0.8766    1.3026    0.0053 H       1  UNL11       0.0662
      8 H          -1.6890    5.5493    0.1954 H       1  UNL11       0.0633
      9 H          -2.8862    3.3897    0.0756 H       1  UNL11       0.0640
     10 CL          1.0655    6.1902    0.2538 Cl      1  UNL11      -0.0813
     11 N           2.3038    3.4623    0.1207 N.2     1  UNL11      -0.1478
     12 C           4.9623    2.4191   -0.9258 C.ar    1  UNL11      -0.0311
     13 C           6.3490    2.5584   -0.9223 C.ar    1  UNL11      -0.0172
     14 C           6.9254    3.8232   -1.0277 C.ar    1  UNL11       0.1321
     15 C           6.1111    4.9549   -1.1163 C.ar    1  UNL11      -0.0172
     16 C           4.7246    4.8170   -1.1189 C.ar    1  UNL11      -0.0311
     17 C           4.1482    3.5493   -1.0198 C.ar    1  UNL11       0.0864
     18 H           4.5193    1.4289   -0.8456 H       1  UNL11       0.0640
     19 H           6.9813    1.6779   -0.8373 H       1  UNL11       0.0655
     20 H           6.5525    5.9464   -1.1744 H       1  UNL11       0.0655
     21 H           4.0948    5.7011   -1.1878 H       1  UNL11       0.0640
     22 N           2.8479    3.4234   -1.0311 N.2     1  UNL11      -0.1493
     23 C          -4.1080   -2.9547    0.9183 C.ar    1  UNL11       0.1321
     24 C          -2.7153   -2.9866    0.8677 C.ar    1  UNL11      -0.0172
     25 C          -1.9857   -1.8008    0.9321 C.ar    1  UNL11      -0.0311
     26 C          -2.6504   -0.5771    1.0320 C.ar    1  UNL11       0.0864
     27 C          -4.0454   -0.5440    1.0763 C.ar    1  UNL11      -0.0311
     28 C          -4.7737   -1.7301    1.0126 C.ar    1  UNL11      -0.0172
     29 H          -2.1961   -3.9376    0.7786 H       1  UNL11       0.0655
     30 H          -0.8991   -1.8335    0.8947 H       1  UNL11       0.0640
     31 H          -4.5688    0.4064    1.1510 H       1  UNL11       0.0640
     32 H          -5.8600   -1.6950    1.0287 H       1  UNL11       0.0655
     33 N          -1.9695    0.5360    1.0998 N.2     1  UNL11      -0.1493
     34 N          -1.7144    1.0695   -0.0290 N.2     1  UNL11      -0.1492
     35 O          -4.8048   -4.1441    0.8311 O.3     1  UNL11      -0.4223
     36 O          -6.1667   -3.8641    2.6061 O.2     1  UNL11      -0.2445
     37 C          -7.7026   -8.2791    0.6721 C.ar    1  UNL11      -0.0473
     38 C          -6.6576   -7.7950   -0.1158 C.ar    1  UNL11      -0.0578
     39 C          -6.0433   -6.5831    0.1950 C.ar    1  UNL11      -0.0475
     40 C          -6.4652   -5.8349    1.2996 C.ar    1  UNL11       0.0594
     41 C          -7.5110   -6.3261    2.0872 C.ar    1  UNL11      -0.0475
     42 C          -8.1241   -7.5382    1.7765 C.ar    1  UNL11      -0.0578
     43 H          -6.3213   -8.3574   -0.9837 H       1  UNL11       0.0620
     44 H          -5.2349   -6.2258   -0.4379 H       1  UNL11       0.0626
     45 H          -7.8594   -5.7620    2.9489 H       1  UNL11       0.0626
     46 H          -8.9400   -7.9008    2.3974 H       1  UNL11       0.0620
     47 C          -5.8178   -4.5235    1.6450 C.2     1  UNL11       0.3444
     48 O           8.3020    3.9321   -1.0012 O.3     1  UNL11      -0.4223
     49 C          11.0620    4.0018   -0.4847 C.ar    1  UNL11      -0.0475
     50 C          12.4334    4.0294   -0.2375 C.ar    1  UNL11      -0.0578
     51 C          13.2902    4.7282   -1.0889 C.ar    1  UNL11      -0.0473
     52 C          12.7595    5.3983   -2.1912 C.ar    1  UNL11      -0.0578
     53 C          11.3887    5.3687   -2.4405 C.ar    1  UNL11      -0.0475
     54 C          10.5253    4.6709   -1.5903 C.ar    1  UNL11       0.0594
     55 H          10.4160    3.4509    0.1943 H       1  UNL11       0.0626
     56 H          12.8310    3.5048    0.6282 H       1  UNL11       0.0620
     57 H          13.4151    5.9452   -2.8649 H       1  UNL11       0.0620
     58 H          10.9961    5.8984   -3.3051 H       1  UNL11       0.0626
     59 O           8.5671    5.2196   -2.8329 O.2     1  UNL11      -0.2445
     60 C           9.0493    4.6505   -1.8718 C.2     1  UNL11       0.3444
     61 C          -8.3900   -9.5918    0.3235 C.3     1  UNL11      -0.0277
     62 H          -8.4628  -10.2038    1.2259 H       1  UNL11       0.0313
     63 H          -7.7836  -10.1584   -0.3877 H       1  UNL11       0.0313
     64 C          -9.8065   -9.3895   -0.2568 C.3     1  UNL11      -0.0491
     65 H         -10.2720  -10.3669   -0.4053 H       1  UNL11       0.0268
     66 H         -10.4120   -8.8489    0.4734 H       1  UNL11       0.0268
     67 C          -9.7799   -8.6263   -1.6024 C.3     1  UNL11      -0.0528
     68 H          -9.1513   -9.1769   -2.3066 H       1  UNL11       0.0265
     69 H          -9.3162   -7.6464   -1.4735 H       1  UNL11       0.0265
     70 C         -11.1840   -8.4595   -2.2335 C.3     1  UNL11      -0.0530
     71 H         -11.0736   -7.9643   -3.2014 H       1  UNL11       0.0265
     72 H         -11.6023   -9.4488   -2.4349 H       1  UNL11       0.0265
     73 C         -12.1944   -7.6575   -1.3754 C.3     1  UNL11      -0.0531
     74 H         -12.4071   -8.1919   -0.4470 H       1  UNL11       0.0265
     75 H         -13.1370   -7.6027   -1.9257 H       1  UNL11       0.0265
     76 C         -11.7175   -6.2220   -1.0563 C.3     1  UNL11      -0.0533
     77 H         -11.4610   -5.7067   -1.9854 H       1  UNL11       0.0265
     78 H         -10.8191   -6.2572   -0.4359 H       1  UNL11       0.0265
     79 C          14.7877    4.7636   -0.8198 C.3     1  UNL11      -0.0277
     80 H          15.3193    4.5594   -1.7525 H       1  UNL11       0.0313
     81 H          15.0636    3.9654   -0.1261 H       1  UNL11       0.0313
     82 C          15.2717    6.1186   -0.2589 C.3     1  UNL11      -0.0491
     83 H          16.3608    6.0919   -0.1716 H       1  UNL11       0.0268
     84 H          15.0234    6.9162   -0.9636 H       1  UNL11       0.0268
     85 C          14.6581    6.4347    1.1232 C.3     1  UNL11      -0.0528
     86 H          14.8871    5.6227    1.8182 H       1  UNL11       0.0265
     87 H          13.5706    6.5014    1.0388 H       1  UNL11       0.0265
     88 C          15.2062    7.7634    1.6847 C.3     1  UNL11      -0.0530
     89 H          16.2938    7.7004    1.7749 H       1  UNL11       0.0265
     90 H          14.9787    8.5747    0.9883 H       1  UNL11       0.0265
     91 C          14.5936    8.0834    3.0644 C.3     1  UNL11      -0.0531
     92 H          13.5062    8.1488    2.9741 H       1  UNL11       0.0265
     93 H          14.8193    7.2713    3.7604 H       1  UNL11       0.0265
     94 C          15.1449    9.4112    3.6256 C.3     1  UNL11      -0.0533
     95 H          16.2325    9.3461    3.7142 H       1  UNL11       0.0265
     96 H          14.9181   10.2234    2.9301 H       1  UNL11       0.0265
     97 C         -12.8076   -5.4252   -0.3095 C.3     1  UNL11      -0.0559
     98 H         -13.0720   -5.9412    0.6169 H       1  UNL11       0.0263
     99 H         -13.7094   -5.3667   -0.9240 H       1  UNL11       0.0263
    100 C          14.5352    9.7316    5.0065 C.3     1  UNL11      -0.0559
    101 H          14.7601    8.9223    5.7056 H       1  UNL11       0.0263
    102 H          13.4479    9.8023    4.9221 H       1  UNL11       0.0263
    103 C         -12.3287   -4.0004    0.0244 C.3     1  UNL11      -0.0653
    104 H         -12.0822   -3.4525   -0.8881 H       1  UNL11       0.0230
    105 H         -13.1125   -3.4528    0.5524 H       1  UNL11       0.0230
    106 H         -11.4421   -4.0308    0.6623 H       1  UNL11       0.0230
    107 C          15.0870   11.0546    5.5688 C.3     1  UNL11      -0.0653
    108 H          14.6443   11.2638    6.5452 H       1  UNL11       0.0230
    109 H          16.1716   11.0006    5.6885 H       1  UNL11       0.0230
    110 H          14.8518   11.8862    4.9004 H       1  UNL11       0.0230
@<TRIPOS>BOND
     1     1     2   ar
     2     1     6   ar
     3     1    34    1
     4     2     3   ar
     5     2     7    1
     6     3     4   ar
     7     3    11    1
     8     4     5   ar
     9     4    10    1
    10     5     6   ar
    11     5     8    1
    12     6     9    1
    13    11    22    2
    14    12    13   ar
    15    12    17   ar
    16    12    18    1
    17    13    14   ar
    18    13    19    1
    19    14    15   ar
    20    14    48    1
    21    15    16   ar
    22    15    20    1
    23    16    17   ar
    24    16    21    1
    25    17    22    1
    26    23    24   ar
    27    23    28   ar
    28    23    35    1
    29    24    25   ar
    30    24    29    1
    31    25    26   ar
    32    25    30    1
    33    26    27   ar
    34    26    33    1
    35    27    28   ar
    36    27    31    1
    37    28    32    1
    38    33    34    2
    39    35    47    1
    40    36    47    2
    41    37    38   ar
    42    37    42   ar
    43    37    61    1
    44    38    39   ar
    45    38    43    1
    46    39    40   ar
    47    39    44    1
    48    40    41   ar
    49    40    47    1
    50    41    42   ar
    51    41    45    1
    52    42    46    1
    53    48    60    1
    54    49    50   ar
    55    49    54   ar
    56    49    55    1
    57    50    51   ar
    58    50    56    1
    59    51    52   ar
    60    51    79    1
    61    52    53   ar
    62    52    57    1
    63    53    54   ar
    64    53    58    1
    65    54    60    1
    66    59    60    2
    67    61    62    1
    68    61    63    1
    69    61    64    1
    70    64    65    1
    71    64    66    1
    72    64    67    1
    73    67    68    1
    74    67    69    1
    75    67    70    1
    76    70    71    1
    77    70    72    1
    78    70    73    1
    79    73    74    1
    80    73    75    1
    81    73    76    1
    82    76    77    1
    83    76    78    1
    84    76    97    1
    85    79    80    1
    86    79    81    1
    87    79    82    1
    88    82    83    1
    89    82    84    1
    90    82    85    1
    91    85    86    1
    92    85    87    1
    93    85    88    1
    94    88    89    1
    95    88    90    1
    96    88    91    1
    97    91    92    1
    98    91    93    1
    99    91    94    1
   100    94    95    1
   101    94    96    1
   102    94   100    1
   103    97    98    1
   104    97    99    1
   105    97   103    1
   106   100   101    1
   107   100   102    1
   108   100   107    1
   109   103   104    1
   110   103   105    1
   111   103   106    1
   112   107   108    1
   113   107   109    1
   114   107   110    1
