@<TRIPOS>MOLECULE
*****
 116 120 0 0 0
SMALL
GASTEIGER

@<TRIPOS>ATOM
      1 C          -0.9976    1.8993   -0.0401 C.ar    1  UNL1        0.0883
      2 C           0.3988    1.8923   -0.0796 C.ar    1  UNL1       -0.0059
      3 C           1.1107    3.0848    0.0769 C.ar    1  UNL1        0.1065
      4 C           0.4168    4.2872    0.2702 C.ar    1  UNL1        0.0682
      5 C          -0.9769    4.2913    0.2935 C.ar    1  UNL1       -0.0392
      6 C          -1.6836    3.1019    0.1346 C.ar    1  UNL1       -0.0330
      7 H           0.9326    0.9533   -0.2121 H       1  UNL1        0.0662
      8 H          -1.5163    5.2240    0.4397 H       1  UNL1        0.0633
      9 H          -2.7712    3.1132    0.1617 H       1  UNL1        0.0640
     10 CL          1.2524    5.7922    0.4857 Cl      1  UNL1       -0.0813
     11 N           2.4192    3.0641    0.0643 N.2     1  UNL1       -0.1478
     12 C           5.1011    2.2368   -1.1279 C.ar    1  UNL1       -0.0311
     13 C           6.4800    2.4410   -1.1547 C.ar    1  UNL1       -0.0172
     14 C           6.9953    3.7363   -1.1685 C.ar    1  UNL1        0.1321
     15 C           6.1284    4.8309   -1.1304 C.ar    1  UNL1       -0.0172
     16 C           4.7504    4.6280   -1.1031 C.ar    1  UNL1       -0.0311
     17 C           4.2340    3.3308   -1.1000 C.ar    1  UNL1        0.0864
     18 H           4.7057    1.2235   -1.1250 H       1  UNL1        0.0640
     19 H           7.1536    1.5878   -1.1717 H       1  UNL1        0.0655
     20 H           6.5230    5.8437   -1.1213 H       1  UNL1        0.0655
     21 H           4.0804    5.4845   -1.0801 H       1  UNL1        0.0640
     22 N           2.9399    3.1481   -1.0960 N.2     1  UNL1       -0.1493
     23 C          -4.3589   -3.0989    0.6315 C.ar    1  UNL1        0.1321
     24 C          -2.9859   -3.2339    0.4315 C.ar    1  UNL1       -0.0172
     25 C          -2.1533   -2.1196    0.5207 C.ar    1  UNL1       -0.0311
     26 C          -2.6963   -0.8628    0.7951 C.ar    1  UNL1        0.0864
     27 C          -4.0730   -0.7257    0.9835 C.ar    1  UNL1       -0.0311
     28 C          -4.9042   -1.8408    0.8964 C.ar    1  UNL1       -0.0172
     29 H          -2.5612   -4.2114    0.2163 H       1  UNL1        0.0655
     30 H          -1.0814   -2.2341    0.3749 H       1  UNL1        0.0640
     31 H          -4.5018    0.2502    1.1993 H       1  UNL1        0.0640
     32 H          -5.9759   -1.7270    1.0387 H       1  UNL1        0.0655
     33 N          -1.9182    0.1809    0.9101 N.2     1  UNL1       -0.1493
     34 N          -1.6686    0.7868   -0.1829 N.2     1  UNL1       -0.1492
     35 O          -5.1605   -4.2207    0.5506 O.3     1  UNL1       -0.4223
     36 O          -6.1537   -4.0270    2.5638 O.2     1  UNL1       -0.2445
     37 C          -8.1603   -8.2891    0.7239 C.ar    1  UNL1       -0.0473
     38 C          -7.3018   -7.7579   -0.2399 C.ar    1  UNL1       -0.0578
     39 C          -6.6158   -6.5688    0.0043 C.ar    1  UNL1       -0.0475
     40 C          -6.7811   -5.8888    1.2159 C.ar    1  UNL1        0.0594
     41 C          -7.6542   -6.4174    2.1716 C.ar    1  UNL1       -0.0475
     42 C          -8.3341   -7.6094    1.9298 C.ar    1  UNL1       -0.0578
     43 H          -7.1546   -8.2744   -1.1856 H       1  UNL1        0.0620
     44 H          -5.9461   -6.1808   -0.7592 H       1  UNL1        0.0626
     45 H          -7.8006   -5.9079    3.1208 H       1  UNL1        0.0626
     46 H          -8.9968   -8.0119    2.6923 H       1  UNL1        0.0620
     47 C          -6.0291   -4.6208    1.5091 C.2     1  UNL1        0.3444
     48 O           8.3654    3.9127   -1.1964 O.3     1  UNL1       -0.4223
     49 C          11.1562    4.0929   -0.8452 C.ar    1  UNL1       -0.0475
     50 C          12.5397    4.1731   -0.6886 C.ar    1  UNL1       -0.0578
     51 C          13.3048    4.9469   -1.5623 C.ar    1  UNL1       -0.0473
     52 C          12.6702    5.6460   -2.5888 C.ar    1  UNL1       -0.0578
     53 C          11.2880    5.5676   -2.7447 C.ar    1  UNL1       -0.0475
     54 C          10.5162    4.7886   -1.8771 C.ar    1  UNL1        0.0594
     55 H          10.5819    3.4825   -0.1527 H       1  UNL1        0.0626
     56 H          13.0195    3.6274    0.1207 H       1  UNL1        0.0620
     57 H          13.2531    6.2578   -3.2735 H       1  UNL1        0.0620
     58 H          10.8144    6.1210   -3.5520 H       1  UNL1        0.0626
     59 O           8.4615    5.3045   -2.9662 O.2     1  UNL1       -0.2445
     60 C           9.0271    4.7116   -2.0668 C.2     1  UNL1        0.3444
     61 C          -8.8764   -9.6104    0.4799 C.3     1  UNL1       -0.0277
     62 H          -8.6676  -10.2787    1.3189 H       1  UNL1        0.0313
     63 H          -8.4728  -10.0995   -0.4102 H       1  UNL1        0.0313
     64 C         -10.4070   -9.4692    0.3335 C.3     1  UNL1       -0.0491
     65 H         -10.8429  -10.4700    0.2808 H       1  UNL1        0.0268
     66 H         -10.8206   -8.9850    1.2215 H       1  UNL1        0.0268
     67 C         -10.8087   -8.6764   -0.9296 C.3     1  UNL1       -0.0528
     68 H         -10.3660   -9.1475   -1.8110 H       1  UNL1        0.0265
     69 H         -10.4201   -7.6568   -0.8680 H       1  UNL1        0.0265
     70 C         -12.3438   -8.6349   -1.0849 C.3     1  UNL1       -0.0530
     71 H         -12.7326   -9.6561   -1.1170 H       1  UNL1        0.0265
     72 H         -12.7850   -8.1416   -0.2150 H       1  UNL1        0.0265
     73 C         -12.7645   -7.8896   -2.3689 C.3     1  UNL1       -0.0531
     74 H         -12.3116   -8.3755   -3.2369 H       1  UNL1        0.0265
     75 H         -12.3945   -6.8617   -2.3339 H       1  UNL1        0.0265
     76 C         -14.3000   -7.8829   -2.5265 C.3     1  UNL1       -0.0531
     77 H         -14.7527   -7.3838   -1.6658 H       1  UNL1        0.0265
     78 H         -14.6683   -8.9120   -2.5423 H       1  UNL1        0.0265
     79 C          14.8143    5.0350   -1.4015 C.3     1  UNL1       -0.0277
     80 H          15.2780    5.0648   -2.3909 H       1  UNL1        0.0313
     81 H          15.1879    4.1356   -0.9054 H       1  UNL1        0.0313
     82 C          15.2401    6.2804   -0.5973 C.3     1  UNL1       -0.0491
     83 H          14.8122    7.1738   -1.0592 H       1  UNL1        0.0268
     84 H          14.8416    6.2111    0.4181 H       1  UNL1        0.0268
     85 C          16.7770    6.4163   -0.5479 C.3     1  UNL1       -0.0528
     86 H          17.1641    6.4969   -1.5669 H       1  UNL1        0.0265
     87 H          17.2035    5.5153   -0.1012 H       1  UNL1        0.0265
     88 C          17.2040    7.6597    0.2649 C.3     1  UNL1       -0.0530
     89 H          16.6664    8.5327   -0.1138 H       1  UNL1        0.0265
     90 H          16.9164    7.5354    1.3120 H       1  UNL1        0.0265
     91 C          18.7198    7.9501    0.1686 C.3     1  UNL1       -0.0531
     92 H          19.0064    8.0542   -0.8810 H       1  UNL1        0.0265
     93 H          18.9168    8.9110    0.6506 H       1  UNL1        0.0265
     94 C          19.5894    6.8650    0.8430 C.3     1  UNL1       -0.0531
     95 H          19.2785    6.7417    1.8836 H       1  UNL1        0.0265
     96 H          19.4484    5.9068    0.3382 H       1  UNL1        0.0265
     97 C         -14.7304   -7.1657   -3.8233 C.3     1  UNL1       -0.0533
     98 H         -14.2735   -7.6624   -4.6832 H       1  UNL1        0.0265
     99 H         -14.3699   -6.1338   -3.8070 H       1  UNL1        0.0265
    100 C          21.0848    7.2445    0.7935 C.3     1  UNL1       -0.0533
    101 H          21.2370    8.1978    1.3064 H       1  UNL1        0.0265
    102 H          21.3922    7.3767   -0.2472 H       1  UNL1        0.0265
    103 C         -16.2657   -7.1738   -3.9810 C.3     1  UNL1       -0.0559
    104 H         -16.7269   -6.6713   -3.1271 H       1  UNL1        0.0263
    105 H         -16.6298   -8.2042   -3.9932 H       1  UNL1        0.0263
    106 C          21.9613    6.1596    1.4538 C.3     1  UNL1       -0.0559
    107 H          21.6626    6.0283    2.4968 H       1  UNL1        0.0263
    108 H          21.8117    5.2041    0.9448 H       1  UNL1        0.0263
    109 C         -16.7004   -6.4689   -5.2790 C.3     1  UNL1       -0.0653
    110 H         -16.2746   -6.9702   -6.1514 H       1  UNL1        0.0230
    111 H         -17.7887   -6.4856   -5.3714 H       1  UNL1        0.0230
    112 H         -16.3718   -5.4271   -5.2812 H       1  UNL1        0.0230
    113 C          23.4536    6.5349    1.3971 C.3     1  UNL1       -0.0653
    114 H          23.6355    7.4752    1.9227 H       1  UNL1        0.0230
    115 H          24.0573    5.7561    1.8685 H       1  UNL1        0.0230
    116 H          23.7846    6.6455    0.3617 H       1  UNL1        0.0230
@<TRIPOS>BOND
     1     1     2   ar
     2     1     6   ar
     3     1    34    1
     4     2     3   ar
     5     2     7    1
     6     3     4   ar
     7     3    11    1
     8     4     5   ar
     9     4    10    1
    10     5     6   ar
    11     5     8    1
    12     6     9    1
    13    11    22    2
    14    12    13   ar
    15    12    17   ar
    16    12    18    1
    17    13    14   ar
    18    13    19    1
    19    14    15   ar
    20    14    48    1
    21    15    16   ar
    22    15    20    1
    23    16    17   ar
    24    16    21    1
    25    17    22    1
    26    23    24   ar
    27    23    28   ar
    28    23    35    1
    29    24    25   ar
    30    24    29    1
    31    25    26   ar
    32    25    30    1
    33    26    27   ar
    34    26    33    1
    35    27    28   ar
    36    27    31    1
    37    28    32    1
    38    33    34    2
    39    35    47    1
    40    36    47    2
    41    37    38   ar
    42    37    42   ar
    43    37    61    1
    44    38    39   ar
    45    38    43    1
    46    39    40   ar
    47    39    44    1
    48    40    41   ar
    49    40    47    1
    50    41    42   ar
    51    41    45    1
    52    42    46    1
    53    48    60    1
    54    49    50   ar
    55    49    54   ar
    56    49    55    1
    57    50    51   ar
    58    50    56    1
    59    51    52   ar
    60    51    79    1
    61    52    53   ar
    62    52    57    1
    63    53    54   ar
    64    53    58    1
    65    54    60    1
    66    59    60    2
    67    61    62    1
    68    61    63    1
    69    61    64    1
    70    64    65    1
    71    64    66    1
    72    64    67    1
    73    67    68    1
    74    67    69    1
    75    67    70    1
    76    70    71    1
    77    70    72    1
    78    70    73    1
    79    73    74    1
    80    73    75    1
    81    73    76    1
    82    76    77    1
    83    76    78    1
    84    76    97    1
    85    79    80    1
    86    79    81    1
    87    79    82    1
    88    82    83    1
    89    82    84    1
    90    82    85    1
    91    85    86    1
    92    85    87    1
    93    85    88    1
    94    88    89    1
    95    88    90    1
    96    88    91    1
    97    91    92    1
    98    91    93    1
    99    91    94    1
   100    94    95    1
   101    94    96    1
   102    94   100    1
   103    97    98    1
   104    97    99    1
   105    97   103    1
   106   100   101    1
   107   100   102    1
   108   100   106    1
   109   103   104    1
   110   103   105    1
   111   103   109    1
   112   106   107    1
   113   106   108    1
   114   106   113    1
   115   109   110    1
   116   109   111    1
   117   109   112    1
   118   113   114    1
   119   113   115    1
   120   113   116    1
