@<TRIPOS>MOLECULE
*****
 122 126 0 0 0
SMALL
GASTEIGER

@<TRIPOS>ATOM
      1 C          -0.9156    1.6917   -0.4185 C.ar    1  UNL1        0.0883
      2 C           0.4697    1.7107   -0.2394 C.ar    1  UNL1       -0.0059
      3 C           1.1284    2.9164    0.0181 C.ar    1  UNL1        0.1065
      4 C           0.3876    4.1050    0.1074 C.ar    1  UNL1        0.0682
      5 C          -0.9915    4.0833   -0.0914 C.ar    1  UNL1       -0.0392
      6 C          -1.6420    2.8821   -0.3586 C.ar    1  UNL1       -0.0330
      7 H           1.0358    0.7826   -0.2891 H       1  UNL1        0.0662
      8 H          -1.5652    5.0047   -0.0287 H       1  UNL1        0.0633
      9 H          -2.7206    2.8737   -0.5001 H       1  UNL1        0.0640
     10 CL          1.1380    5.6273    0.4680 Cl      1  UNL1       -0.0813
     11 N           2.4249    2.9123    0.2027 N.2     1  UNL1       -0.1478
     12 C           5.3144    2.6264   -1.2756 C.ar    1  UNL1       -0.0311
     13 C           6.6795    2.8755   -1.1374 C.ar    1  UNL1       -0.0172
     14 C           7.1245    3.9387   -0.3524 C.ar    1  UNL1        0.1321
     15 C           6.1956    4.7290    0.3304 C.ar    1  UNL1       -0.0172
     16 C           4.8315    4.4899    0.1819 C.ar    1  UNL1       -0.0311
     17 C           4.3850    3.4367   -0.6221 C.ar    1  UNL1        0.0864
     18 H           4.9780    1.8108   -1.9116 H       1  UNL1        0.0640
     19 H           7.3984    2.2510   -1.6617 H       1  UNL1        0.0655
     20 H           6.5256    5.5451    0.9678 H       1  UNL1        0.0655
     21 H           4.1186    5.1331    0.6922 H       1  UNL1        0.0640
     22 N           3.1057    3.2463   -0.8229 N.2     1  UNL1       -0.1493
     23 C          -4.5711   -3.1432    0.0551 C.ar    1  UNL1        0.1321
     24 C          -3.2111   -3.3574    0.2751 C.ar    1  UNL1       -0.0172
     25 C          -2.3403   -2.2735    0.3774 C.ar    1  UNL1       -0.0311
     26 C          -2.8280   -0.9722    0.2466 C.ar    1  UNL1        0.0864
     27 C          -4.1864   -0.7593    0.0007 C.ar    1  UNL1       -0.0311
     28 C          -5.0559   -1.8434   -0.1021 C.ar    1  UNL1       -0.0172
     29 H          -2.8333   -4.3692    0.3984 H       1  UNL1        0.0655
     30 H          -1.2860   -2.4459    0.5816 H       1  UNL1        0.0640
     31 H          -4.5746    0.2524   -0.0919 H       1  UNL1        0.0640
     32 H          -6.1147   -1.6714   -0.2787 H       1  UNL1        0.0655
     33 N          -2.0314    0.0478    0.4286 N.2     1  UNL1       -0.1493
     34 N          -1.5421    0.5635   -0.6291 N.2     1  UNL1       -0.1492
     35 O          -5.4236   -4.2295    0.0236 O.3     1  UNL1       -0.4223
     36 O          -6.7897   -3.5540    1.6828 O.2     1  UNL1       -0.2445
     37 C          -8.5320   -8.1806    0.6233 C.ar    1  UNL1       -0.0473
     38 C          -7.4974   -7.8866   -0.2671 C.ar    1  UNL1       -0.0578
     39 C          -6.8409   -6.6576   -0.2100 C.ar    1  UNL1       -0.0475
     40 C          -7.2129   -5.6972    0.7363 C.ar    1  UNL1        0.0594
     41 C          -8.2634   -5.9871    1.6122 C.ar    1  UNL1       -0.0475
     42 C          -8.9097   -7.2204    1.5638 C.ar    1  UNL1       -0.0578
     43 H          -7.1820   -8.6240   -1.0015 H       1  UNL1        0.0620
     44 H          -6.0274   -6.4613   -0.9039 H       1  UNL1        0.0626
     45 H          -8.5693   -5.2592    2.3599 H       1  UNL1        0.0626
     46 H          -9.7028   -7.4318    2.2765 H       1  UNL1        0.0620
     47 C          -6.4874   -4.3856    0.8475 C.2     1  UNL1        0.3444
     48 O           8.4863    4.1725   -0.2657 O.3     1  UNL1       -0.4223
     49 C          11.3048    4.1741   -0.1065 C.ar    1  UNL1       -0.0475
     50 C          12.6983    4.1846   -0.0519 C.ar    1  UNL1       -0.0578
     51 C          13.4071    5.3874   -0.0948 C.ar    1  UNL1       -0.0473
     52 C          12.6904    6.5859   -0.1773 C.ar    1  UNL1       -0.0578
     53 C          11.2989    6.5752   -0.2426 C.ar    1  UNL1       -0.0475
     54 C          10.5901    5.3712   -0.2120 C.ar    1  UNL1        0.0594
     55 H          10.7824    3.2211   -0.0774 H       1  UNL1        0.0626
     56 H          13.2340    3.2410    0.0221 H       1  UNL1        0.0620
     57 H          13.2009    7.5442   -0.1987 H       1  UNL1        0.0620
     58 H          10.7676    7.5208   -0.3179 H       1  UNL1        0.0626
     59 O           8.4713    6.4233   -0.4494 O.2     1  UNL1       -0.2445
     60 C           9.0898    5.3860   -0.3030 C.2     1  UNL1        0.3444
     61 C          -9.1994   -9.5517    0.5983 C.3     1  UNL1       -0.0277
     62 H          -8.9245  -10.0866    1.5105 H       1  UNL1        0.0313
     63 H          -8.8071  -10.1413   -0.2341 H       1  UNL1        0.0313
     64 C         -10.7410   -9.5157    0.4959 C.3     1  UNL1       -0.0491
     65 H         -11.1142  -10.5425    0.5257 H       1  UNL1        0.0268
     66 H         -11.1599   -9.0010    1.3635 H       1  UNL1        0.0268
     67 C         -11.2320   -8.8356   -0.8003 C.3     1  UNL1       -0.0528
     68 H         -10.8145   -9.3544   -1.6669 H       1  UNL1        0.0265
     69 H         -10.8735   -7.8045   -0.8240 H       1  UNL1        0.0265
     70 C         -12.7756   -8.8555   -0.8771 C.3     1  UNL1       -0.0530
     71 H         -13.1200   -9.8892   -0.7917 H       1  UNL1        0.0265
     72 H         -13.1963   -8.3168   -0.0252 H       1  UNL1        0.0265
     73 C         -13.3292   -8.2737   -2.2008 C.3     1  UNL1       -0.0531
     74 H         -14.4179   -8.3686   -2.1946 H       1  UNL1        0.0265
     75 H         -12.9679   -8.8827   -3.0331 H       1  UNL1        0.0265
     76 C         -12.9583   -6.7946   -2.4706 C.3     1  UNL1       -0.0531
     77 H         -13.3979   -6.5050   -3.4283 H       1  UNL1        0.0265
     78 H         -11.8765   -6.6920   -2.5805 H       1  UNL1        0.0265
     79 C          14.9344    5.3470   -0.0377 C.3     1  UNL1       -0.0277
     80 H          15.2773    4.4786   -0.6064 H       1  UNL1        0.0313
     81 H          15.2447    5.1868    0.9977 H       1  UNL1        0.0313
     82 C          15.6488    6.6028   -0.5894 C.3     1  UNL1       -0.0491
     83 H          15.2595    6.8378   -1.5834 H       1  UNL1        0.0268
     84 H          15.4418    7.4549    0.0626 H       1  UNL1        0.0268
     85 C          17.1763    6.3994   -0.6784 C.3     1  UNL1       -0.0528
     86 H          17.3953    5.5877   -1.3770 H       1  UNL1        0.0265
     87 H          17.5667    6.1092    0.3004 H       1  UNL1        0.0265
     88 C          17.8777    7.6920   -1.1485 C.3     1  UNL1       -0.0530
     89 H          17.4522    8.0117   -2.1033 H       1  UNL1        0.0265
     90 H          17.6936    8.4883   -0.4226 H       1  UNL1        0.0265
     91 C          19.3984    7.4851   -1.3109 C.3     1  UNL1       -0.0531
     92 H          19.8152    7.1256   -0.3674 H       1  UNL1        0.0265
     93 H          19.5804    6.7187   -2.0687 H       1  UNL1        0.0265
     94 C          20.0950    8.8014   -1.7257 C.3     1  UNL1       -0.0531
     95 H          19.5898    9.2081   -2.6054 H       1  UNL1        0.0265
     96 H          19.9931    9.5412   -0.9275 H       1  UNL1        0.0265
     97 C         -13.4681   -5.8310   -1.3751 C.3     1  UNL1       -0.0531
     98 H         -12.9757   -6.0532   -0.4258 H       1  UNL1        0.0265
     99 H         -14.5429   -5.9722   -1.2342 H       1  UNL1        0.0265
    100 C          21.5897    8.6128   -2.0731 C.3     1  UNL1       -0.0531
    101 H          21.9693    9.5558   -2.4746 H       1  UNL1        0.0265
    102 H          21.6910    7.8644   -2.8632 H       1  UNL1        0.0265
    103 C         -13.1868   -4.3618   -1.7529 C.3     1  UNL1       -0.0533
    104 H         -13.6902   -4.1239   -2.6936 H       1  UNL1        0.0265
    105 H         -12.1134   -4.2249   -1.9081 H       1  UNL1        0.0265
    106 C          22.4483    8.2066   -0.8540 C.3     1  UNL1       -0.0533
    107 H          22.3021    8.9280   -0.0460 H       1  UNL1        0.0265
    108 H          22.1332    7.2275   -0.4864 H       1  UNL1        0.0265
    109 C         -13.6735   -3.3983   -0.6503 C.3     1  UNL1       -0.0559
    110 H         -13.1684   -3.6295    0.2909 H       1  UNL1        0.0263
    111 H         -14.7464   -3.5319   -0.4905 H       1  UNL1        0.0263
    112 C          23.9452    8.1479   -1.2254 C.3     1  UNL1       -0.0559
    113 H          24.2777    9.1288   -1.5741 H       1  UNL1        0.0263
    114 H          24.0946    7.4390   -2.0438 H       1  UNL1        0.0263
    115 C         -13.3960   -1.9315   -1.0269 C.3     1  UNL1       -0.0653
    116 H         -13.9142   -1.6660   -1.9513 H       1  UNL1        0.0230
    117 H         -13.7449   -1.2655   -0.2346 H       1  UNL1        0.0230
    118 H         -12.3254   -1.7655   -1.1680 H       1  UNL1        0.0230
    119 C          24.8056    7.7199   -0.0224 C.3     1  UNL1       -0.0653
    120 H          25.8602    7.6879   -0.3050 H       1  UNL1        0.0230
    121 H          24.6929    8.4261    0.8035 H       1  UNL1        0.0230
    122 H          24.5139    6.7266    0.3265 H       1  UNL1        0.0230
@<TRIPOS>BOND
     1     1     2   ar
     2     1     6   ar
     3     1    34    1
     4     2     3   ar
     5     2     7    1
     6     3     4   ar
     7     3    11    1
     8     4     5   ar
     9     4    10    1
    10     5     6   ar
    11     5     8    1
    12     6     9    1
    13    11    22    2
    14    12    13   ar
    15    12    17   ar
    16    12    18    1
    17    13    14   ar
    18    13    19    1
    19    14    15   ar
    20    14    48    1
    21    15    16   ar
    22    15    20    1
    23    16    17   ar
    24    16    21    1
    25    17    22    1
    26    23    24   ar
    27    23    28   ar
    28    23    35    1
    29    24    25   ar
    30    24    29    1
    31    25    26   ar
    32    25    30    1
    33    26    27   ar
    34    26    33    1
    35    27    28   ar
    36    27    31    1
    37    28    32    1
    38    33    34    2
    39    35    47    1
    40    36    47    2
    41    37    38   ar
    42    37    42   ar
    43    37    61    1
    44    38    39   ar
    45    38    43    1
    46    39    40   ar
    47    39    44    1
    48    40    41   ar
    49    40    47    1
    50    41    42   ar
    51    41    45    1
    52    42    46    1
    53    48    60    1
    54    49    50   ar
    55    49    54   ar
    56    49    55    1
    57    50    51   ar
    58    50    56    1
    59    51    52   ar
    60    51    79    1
    61    52    53   ar
    62    52    57    1
    63    53    54   ar
    64    53    58    1
    65    54    60    1
    66    59    60    2
    67    61    62    1
    68    61    63    1
    69    61    64    1
    70    64    65    1
    71    64    66    1
    72    64    67    1
    73    67    68    1
    74    67    69    1
    75    67    70    1
    76    70    71    1
    77    70    72    1
    78    70    73    1
    79    73    74    1
    80    73    75    1
    81    73    76    1
    82    76    77    1
    83    76    78    1
    84    76    97    1
    85    79    80    1
    86    79    81    1
    87    79    82    1
    88    82    83    1
    89    82    84    1
    90    82    85    1
    91    85    86    1
    92    85    87    1
    93    85    88    1
    94    88    89    1
    95    88    90    1
    96    88    91    1
    97    91    92    1
    98    91    93    1
    99    91    94    1
   100    94    95    1
   101    94    96    1
   102    94   100    1
   103    97    98    1
   104    97    99    1
   105    97   103    1
   106   100   101    1
   107   100   102    1
   108   100   106    1
   109   103   104    1
   110   103   105    1
   111   103   109    1
   112   106   107    1
   113   106   108    1
   114   106   112    1
   115   109   110    1
   116   109   111    1
   117   109   115    1
   118   112   113    1
   119   112   114    1
   120   112   119    1
   121   115   116    1
   122   115   117    1
   123   115   118    1
   124   119   120    1
   125   119   121    1
   126   119   122    1
