@<TRIPOS>MOLECULE
*****
 134 138 0 0 0
SMALL
GASTEIGER

@<TRIPOS>ATOM
      1 C          -0.6463    1.5576   -0.6406 C.ar    1  UNL1        0.0883
      2 C           0.7254    1.5626   -0.3750 C.ar    1  UNL1       -0.0059
      3 C           1.3742    2.7582   -0.0506 C.ar    1  UNL1        0.1065
      4 C           0.6384    3.9492    0.0216 C.ar    1  UNL1        0.0682
      5 C          -0.7281    3.9416   -0.2527 C.ar    1  UNL1       -0.0392
      6 C          -1.3683    2.7520   -0.5895 C.ar    1  UNL1       -0.0330
      7 H           1.2900    0.6335   -0.4214 H       1  UNL1        0.0662
      8 H          -1.2986    4.8657   -0.2016 H       1  UNL1        0.0633
      9 H          -2.4362    2.7559   -0.7969 H       1  UNL1        0.0640
     10 CL          1.3872    5.4563    0.4436 Cl      1  UNL1       -0.0813
     11 N           2.6614    2.7539    0.1893 N.2     1  UNL1       -0.1478
     12 C           5.5542    2.0666   -0.6462 C.ar    1  UNL1       -0.0311
     13 C           6.9199    2.3062   -0.5047 C.ar    1  UNL1       -0.0172
     14 C           7.3888    3.6074   -0.3302 C.ar    1  UNL1        0.1321
     15 C           6.4869    4.6738   -0.3036 C.ar    1  UNL1       -0.0172
     16 C           5.1215    4.4356   -0.4492 C.ar    1  UNL1       -0.0311
     17 C           4.6525    3.1318   -0.6230 C.ar    1  UNL1        0.0864
     18 H           5.1983    1.0509   -0.8028 H       1  UNL1        0.0640
     19 H           7.6222    1.4777   -0.5514 H       1  UNL1        0.0655
     20 H           6.8449    5.6951   -0.2022 H       1  UNL1        0.0655
     21 H           4.4272    5.2727   -0.4529 H       1  UNL1        0.0640
     22 N           3.3821    2.9223   -0.8482 N.2     1  UNL1       -0.1493
     23 C          -4.3816   -3.2709   -0.5155 C.ar    1  UNL1        0.1321
     24 C          -3.1014   -3.4614    0.0021 C.ar    1  UNL1       -0.0172
     25 C          -2.2382   -2.3777    0.1538 C.ar    1  UNL1       -0.0311
     26 C          -2.6506   -1.0986   -0.2219 C.ar    1  UNL1        0.0864
     27 C          -3.9178   -0.9140   -0.7812 C.ar    1  UNL1       -0.0311
     28 C          -4.7781   -1.9997   -0.9379 C.ar    1  UNL1       -0.0172
     29 H          -2.7924   -4.4490    0.3353 H       1  UNL1        0.0655
     30 H          -1.2597   -2.5274    0.6045 H       1  UNL1        0.0640
     31 H          -4.2521    0.0816   -1.0639 H       1  UNL1        0.0640
     32 H          -5.7732   -1.8429   -1.3466 H       1  UNL1        0.0655
     33 N          -1.8934   -0.0673    0.0478 N.2     1  UNL1       -0.1493
     34 N          -1.2594    0.4399   -0.9346 N.2     1  UNL1       -0.1492
     35 O          -5.2528   -4.3445   -0.5294 O.3     1  UNL1       -0.4223
     36 O          -6.9643   -3.3372    0.5390 O.2     1  UNL1       -0.2445
     37 C          -8.3270   -8.1966    0.6447 C.ar    1  UNL1       -0.0473
     38 C          -7.1324   -8.0928   -0.0716 C.ar    1  UNL1       -0.0578
     39 C          -6.5370   -6.8496   -0.2845 C.ar    1  UNL1       -0.0475
     40 C          -7.1317   -5.6847    0.2095 C.ar    1  UNL1        0.0594
     41 C          -8.3379   -5.7900    0.9087 C.ar    1  UNL1       -0.0475
     42 C          -8.9235   -7.0335    1.1351 C.ar    1  UNL1       -0.0578
     43 H          -6.6457   -8.9869   -0.4540 H       1  UNL1        0.0620
     44 H          -5.5946   -6.8001   -0.8240 H       1  UNL1        0.0626
     45 H          -8.8163   -4.9009    1.3123 H       1  UNL1        0.0626
     46 H          -9.8443   -7.0880    1.7100 H       1  UNL1        0.0620
     47 C          -6.4761   -4.3410    0.0548 C.2     1  UNL1        0.3444
     48 O           8.7529    3.8205   -0.2942 O.3     1  UNL1       -0.4223
     49 C          11.4685    4.1966   -0.8526 C.ar    1  UNL1       -0.0475
     50 C          12.8201    4.3838   -1.1341 C.ar    1  UNL1       -0.0578
     51 C          13.6079    5.1950   -0.3163 C.ar    1  UNL1       -0.0473
     52 C          13.0256    5.8100    0.7936 C.ar    1  UNL1       -0.0578
     53 C          11.6710    5.6300    1.0707 C.ar    1  UNL1       -0.0475
     54 C          10.8776    4.8214    0.2511 C.ar    1  UNL1        0.0594
     55 H          10.8795    3.5616   -1.5095 H       1  UNL1        0.0626
     56 H          13.2563    3.8905   -1.9995 H       1  UNL1        0.0620
     57 H          13.6252    6.4386    1.4475 H       1  UNL1        0.0620
     58 H          11.2361    6.1254    1.9354 H       1  UNL1        0.0626
     59 O           8.8736    5.1875    1.4949 O.2     1  UNL1       -0.2445
     60 C           9.4156    4.6418    0.5526 C.2     1  UNL1        0.3444
     61 C          -8.9364   -9.5677    0.9268 C.3     1  UNL1       -0.0277
     62 H          -8.7809   -9.8027    1.9824 H       1  UNL1        0.0313
     63 H          -8.3969  -10.3347    0.3668 H       1  UNL1        0.0313
     64 C         -10.4501   -9.6879    0.6189 C.3     1  UNL1       -0.0491
     65 H         -10.7729  -10.7144    0.8091 H       1  UNL1        0.0268
     66 H         -11.0079   -9.0563    1.3138 H       1  UNL1        0.0268
     67 C         -10.8315   -9.2897   -0.8259 C.3     1  UNL1       -0.0528
     68 H         -10.4935   -8.2699   -1.0163 H       1  UNL1        0.0265
     69 H         -11.9211   -9.2836   -0.9082 H       1  UNL1        0.0265
     70 C         -10.2572  -10.2592   -1.8863 C.3     1  UNL1       -0.0530
     71 H          -9.1690  -10.2957   -1.8203 H       1  UNL1        0.0265
     72 H         -10.6146  -11.2691   -1.6706 H       1  UNL1        0.0265
     73 C         -10.6784   -9.8913   -3.3313 C.3     1  UNL1       -0.0531
     74 H         -11.7652   -9.9710   -3.4139 H       1  UNL1        0.0265
     75 H         -10.2576  -10.6311   -4.0166 H       1  UNL1        0.0265
     76 C         -10.2487   -8.4761   -3.7950 C.3     1  UNL1       -0.0531
     77 H         -10.7507   -7.7172   -3.1913 H       1  UNL1        0.0265
     78 H         -10.5932   -8.3315   -4.8219 H       1  UNL1        0.0265
     79 C          15.0869    5.3893   -0.6285 C.3     1  UNL1       -0.0277
     80 H          15.3614    4.8057   -1.5103 H       1  UNL1        0.0313
     81 H          15.6748    4.9825    0.1978 H       1  UNL1        0.0313
     82 C          15.5014    6.8640   -0.8485 C.3     1  UNL1       -0.0491
     83 H          15.3990    7.4050    0.0949 H       1  UNL1        0.0268
     84 H          16.5622    6.9009   -1.1058 H       1  UNL1        0.0268
     85 C          14.6748    7.6069   -1.9288 C.3     1  UNL1       -0.0528
     86 H          15.0259    8.6394   -1.9885 H       1  UNL1        0.0265
     87 H          13.6327    7.6632   -1.6053 H       1  UNL1        0.0265
     88 C          14.7161    6.9697   -3.3414 C.3     1  UNL1       -0.0530
     89 H          14.2337    5.9906   -3.3114 H       1  UNL1        0.0265
     90 H          14.1143    7.5853   -4.0144 H       1  UNL1        0.0265
     91 C          16.1313    6.8091   -3.9481 C.3     1  UNL1       -0.0531
     92 H          16.7221    6.1167   -3.3442 H       1  UNL1        0.0265
     93 H          16.0248    6.3518   -4.9350 H       1  UNL1        0.0265
     94 C          16.8868    8.1493   -4.0969 C.3     1  UNL1       -0.0531
     95 H          16.2491    8.8680   -4.6167 H       1  UNL1        0.0265
     96 H          17.1126    8.5561   -3.1086 H       1  UNL1        0.0265
     97 C          -8.7193   -8.2593   -3.7466 C.3     1  UNL1       -0.0531
     98 H          -8.2254   -8.9885   -4.3938 H       1  UNL1        0.0265
     99 H          -8.3520   -8.4144   -2.7309 H       1  UNL1        0.0265
    100 C          18.2042    7.9560   -4.8821 C.3     1  UNL1       -0.0531
    101 H          17.9811    7.6646   -5.9117 H       1  UNL1        0.0265
    102 H          18.7683    7.1352   -4.4320 H       1  UNL1        0.0265
    103 C          -8.3406   -6.8299   -4.1844 C.3     1  UNL1       -0.0531
    104 H          -8.8349   -6.1100   -3.5267 H       1  UNL1        0.0265
    105 H          -8.6940   -6.6472   -5.2024 H       1  UNL1        0.0265
    106 C          19.1021    9.2146   -4.8800 C.3     1  UNL1       -0.0531
    107 H          19.3271    9.5020   -3.8498 H       1  UNL1        0.0265
    108 H          20.0521    8.9574   -5.3552 H       1  UNL1        0.0265
    109 C          -6.8134   -6.6209   -4.1197 C.3     1  UNL1       -0.0531
    110 H          -6.3233   -7.2868   -4.8347 H       1  UNL1        0.0265
    111 H          -6.4517   -6.8862   -3.1246 H       1  UNL1        0.0265
    112 C          18.4745   10.4110   -5.6305 C.3     1  UNL1       -0.0531
    113 H          17.5653   10.7350   -5.1191 H       1  UNL1        0.0265
    114 H          18.1962   10.1046   -6.6421 H       1  UNL1        0.0265
    115 C          -6.4310   -5.1582   -4.4246 C.3     1  UNL1       -0.0533
    116 H          -6.9413   -4.4936   -3.7225 H       1  UNL1        0.0265
    117 H          -6.7646   -4.8964   -5.4321 H       1  UNL1        0.0265
    118 C          19.4619   11.5951   -5.7053 C.3     1  UNL1       -0.0533
    119 H          19.7595   11.8860   -4.6945 H       1  UNL1        0.0265
    120 H          20.3642   11.2839   -6.2382 H       1  UNL1        0.0265
    121 C          -4.9068   -4.9478   -4.3105 C.3     1  UNL1       -0.0559
    122 H          -4.3892   -5.6149   -5.0044 H       1  UNL1        0.0263
    123 H          -4.5747   -5.1999   -3.3002 H       1  UNL1        0.0263
    124 C          18.8332   12.8075   -6.4236 C.3     1  UNL1       -0.0559
    125 H          17.9365   13.1290   -5.8879 H       1  UNL1        0.0263
    126 H          18.5298   12.5221   -7.4339 H       1  UNL1        0.0263
    127 C          19.8235   13.9840   -6.5050 C.3     1  UNL1       -0.0653
    128 H          19.3600   14.8340   -7.0107 H       1  UNL1        0.0230
    129 H          20.1267   14.3034   -5.5052 H       1  UNL1        0.0230
    130 H          20.7173   13.6979   -7.0645 H       1  UNL1        0.0230
    131 C          -4.5179   -3.4914   -4.6222 C.3     1  UNL1       -0.0653
    132 H          -5.0070   -2.8047   -3.9278 H       1  UNL1        0.0230
    133 H          -3.4374   -3.3613   -4.5303 H       1  UNL1        0.0230
    134 H          -4.8106   -3.2243   -5.6404 H       1  UNL1        0.0230
@<TRIPOS>BOND
     1     1     2   ar
     2     1     6   ar
     3     1    34    1
     4     2     3   ar
     5     2     7    1
     6     3     4   ar
     7     3    11    1
     8     4     5   ar
     9     4    10    1
    10     5     6   ar
    11     5     8    1
    12     6     9    1
    13    11    22    2
    14    12    13   ar
    15    12    17   ar
    16    12    18    1
    17    13    14   ar
    18    13    19    1
    19    14    15   ar
    20    14    48    1
    21    15    16   ar
    22    15    20    1
    23    16    17   ar
    24    16    21    1
    25    17    22    1
    26    23    24   ar
    27    23    28   ar
    28    23    35    1
    29    24    25   ar
    30    24    29    1
    31    25    26   ar
    32    25    30    1
    33    26    27   ar
    34    26    33    1
    35    27    28   ar
    36    27    31    1
    37    28    32    1
    38    33    34    2
    39    35    47    1
    40    36    47    2
    41    37    38   ar
    42    37    42   ar
    43    37    61    1
    44    38    39   ar
    45    38    43    1
    46    39    40   ar
    47    39    44    1
    48    40    41   ar
    49    40    47    1
    50    41    42   ar
    51    41    45    1
    52    42    46    1
    53    48    60    1
    54    49    50   ar
    55    49    54   ar
    56    49    55    1
    57    50    51   ar
    58    50    56    1
    59    51    52   ar
    60    51    79    1
    61    52    53   ar
    62    52    57    1
    63    53    54   ar
    64    53    58    1
    65    54    60    1
    66    59    60    2
    67    61    62    1
    68    61    63    1
    69    61    64    1
    70    64    65    1
    71    64    66    1
    72    64    67    1
    73    67    68    1
    74    67    69    1
    75    67    70    1
    76    70    71    1
    77    70    72    1
    78    70    73    1
    79    73    74    1
    80    73    75    1
    81    73    76    1
    82    76    77    1
    83    76    78    1
    84    76    97    1
    85    79    80    1
    86    79    81    1
    87    79    82    1
    88    82    83    1
    89    82    84    1
    90    82    85    1
    91    85    86    1
    92    85    87    1
    93    85    88    1
    94    88    89    1
    95    88    90    1
    96    88    91    1
    97    91    92    1
    98    91    93    1
    99    91    94    1
   100    94    95    1
   101    94    96    1
   102    94   100    1
   103    97    98    1
   104    97    99    1
   105    97   103    1
   106   100   101    1
   107   100   102    1
   108   100   106    1
   109   103   104    1
   110   103   105    1
   111   103   109    1
   112   106   107    1
   113   106   108    1
   114   106   112    1
   115   109   110    1
   116   109   111    1
   117   109   115    1
   118   112   113    1
   119   112   114    1
   120   112   118    1
   121   115   116    1
   122   115   117    1
   123   115   121    1
   124   118   119    1
   125   118   120    1
   126   118   124    1
   127   121   122    1
   128   121   123    1
   129   121   131    1
   130   124   125    1
   131   124   126    1
   132   124   127    1
   133   127   128    1
   134   127   129    1
   135   127   130    1
   136   131   132    1
   137   131   133    1
   138   131   134    1
