@<TRIPOS>MOLECULE
*****
 110 114 0 0 0
SMALL
GASTEIGER

@<TRIPOS>ATOM
      1 C          -8.7888   -4.6989    3.6495 C.ar    1  UNL111     -0.0172
      2 C          -9.4901   -4.4240    2.4766 C.ar    1  UNL111     -0.0311
      3 C          -9.0903   -5.0055    1.2707 C.ar    1  UNL111      0.0864
      4 C          -8.0110   -5.8903    1.2518 C.ar    1  UNL111     -0.0311
      5 C          -7.3118   -6.1656    2.4241 C.ar    1  UNL111     -0.0172
      6 H          -9.0898   -4.2308    4.5834 H       1  UNL111      0.0655
      7 H         -10.3387   -3.7443    2.5035 H       1  UNL111      0.0640
      8 H          -7.7010   -6.3559    0.3189 H       1  UNL111      0.0640
      9 H          -6.4572   -6.8368    2.3940 H       1  UNL111      0.0655
     10 C          -6.7744   -1.4599    0.4678 C.ar    1  UNL111     -0.0392
     11 C          -7.5607   -0.4505    1.0180 C.ar    1  UNL111     -0.0330
     12 C          -8.9524   -0.5503    0.9781 C.ar    1  UNL111      0.0883
     13 C          -9.5518   -1.6882    0.4373 C.ar    1  UNL111     -0.0059
     14 C          -8.7668   -2.7155   -0.0905 C.ar    1  UNL111      0.1065
     15 C          -7.3711   -2.5842   -0.1012 C.ar    1  UNL111      0.0682
     16 H          -5.6915   -1.3629    0.4732 H       1  UNL111      0.0633
     17 H         -10.6370   -1.7706    0.4180 H       1  UNL111      0.0662
     18 N          -9.7314   -4.7434    0.1545 N.2     1  UNL111     -0.1493
     19 N          -9.3648   -3.7700   -0.5996 N.2     1  UNL111     -0.1478
     20 N          -9.7011    0.4294    1.4338 N.2     1  UNL111     -0.1492
     21 C          -9.6451    0.9929   -2.8988 C.ar    1  UNL111     -0.0172
     22 C          -7.7965    2.2675   -2.0090 C.ar    1  UNL111     -0.0172
     23 C          -8.3682    2.2151   -0.7406 C.ar    1  UNL111     -0.0311
     24 C          -9.5631    1.5215   -0.5420 C.ar    1  UNL111      0.0864
     25 C         -10.2151    0.9340   -1.6283 C.ar    1  UNL111     -0.0311
     26 H         -10.1548    0.5222   -3.7355 H       1  UNL111      0.0655
     27 H          -6.8509    2.7837   -2.1551 H       1  UNL111      0.0655
     28 H          -7.8632    2.6887    0.0982 H       1  UNL111      0.0640
     29 H         -11.1554    0.4069   -1.4836 H       1  UNL111      0.0640
     30 N         -10.0554    1.4026    0.6706 N.2     1  UNL111     -0.1493
     31 H          -7.0864    0.4284    1.4489 H       1  UNL111      0.0640
     32 CL         -6.3471   -3.7879   -0.8148 Cl      1  UNL111     -0.0813
     33 C          -8.4170    1.6344   -3.0843 C.ar    1  UNL111      0.1321
     34 O          -7.7821    1.6707   -4.3112 O.3     1  UNL111     -0.4223
     35 C          -7.6287    0.6299   -5.1647 C.2     1  UNL111      0.3444
     36 O          -8.0977   -0.4719   -4.9509 O.2     1  UNL111     -0.2445
     37 C          -6.7382    0.8971   -6.3457 C.ar    1  UNL111      0.0594
     38 C          -6.1404    2.1481   -6.5343 C.ar    1  UNL111     -0.0475
     39 C          -6.4665   -0.1245   -7.2610 C.ar    1  UNL111     -0.0475
     40 C          -5.2708    2.3633   -7.6019 C.ar    1  UNL111     -0.0578
     41 H          -6.3323    2.9626   -5.8404 H       1  UNL111      0.0626
     42 C          -5.6010    0.0928   -8.3315 C.ar    1  UNL111     -0.0578
     43 H          -6.9194   -1.1053   -7.1371 H       1  UNL111      0.0626
     44 C          -4.9903    1.3357   -8.5031 C.ar    1  UNL111     -0.0473
     45 H          -4.8018    3.3370   -7.7222 H       1  UNL111      0.0620
     46 H          -5.3949   -0.7188   -9.0254 H       1  UNL111      0.0620
     47 C          -7.7039   -5.5741    3.6268 C.ar    1  UNL111      0.1321
     48 O          -7.0007   -5.8022    4.7934 O.3     1  UNL111     -0.4223
     49 C          -6.6421   -7.0195    5.2650 C.2     1  UNL111      0.3444
     50 O          -7.0239   -8.0557    4.7543 O.2     1  UNL111     -0.2445
     51 C          -5.7361   -7.0071    6.4640 C.ar    1  UNL111      0.0594
     52 C          -5.3018   -5.8062    7.0332 C.ar    1  UNL111     -0.0475
     53 C          -5.2969   -8.2114    7.0204 C.ar    1  UNL111     -0.0475
     54 C          -4.4438   -5.8134    8.1314 C.ar    1  UNL111     -0.0578
     55 H          -5.6221   -4.8524    6.6215 H       1  UNL111      0.0626
     56 C          -4.4357   -8.2182    8.1164 C.ar    1  UNL111     -0.0578
     57 H          -5.6180   -9.1590    6.5947 H       1  UNL111      0.0626
     58 C          -4.0012   -7.0162    8.6854 C.ar    1  UNL111     -0.0473
     59 H          -4.1117   -4.8669    8.5518 H       1  UNL111      0.0620
     60 H          -4.1081   -9.1756    8.5107 H       1  UNL111      0.0620
     61 C          -4.0065    1.5627   -9.6421 C.3     1  UNL111     -0.0277
     62 H          -3.0891    1.9916   -9.2315 H       1  UNL111      0.0313
     63 H          -3.7247    0.6071  -10.0916 H       1  UNL111      0.0313
     64 C          -3.0348   -6.9635    9.8680 C.3     1  UNL111     -0.0277
     65 H          -2.0374   -6.7250    9.4903 H       1  UNL111      0.0313
     66 H          -3.3297   -6.1351   10.5175 H       1  UNL111      0.0313
     67 C          -4.5419    2.5039  -10.7419 C.3     1  UNL111     -0.0491
     68 H          -3.7423    2.6820  -11.4653 H       1  UNL111      0.0268
     69 H          -4.8025    3.4709  -10.3047 H       1  UNL111      0.0268
     70 C          -5.7671    1.9147  -11.4746 C.3     1  UNL111     -0.0528
     71 H          -5.5147    0.9290  -11.8740 H       1  UNL111      0.0265
     72 H          -6.5933    1.7858  -10.7708 H       1  UNL111      0.0265
     73 C          -6.2134    2.8378  -12.6276 C.3     1  UNL111     -0.0530
     74 H          -5.3854    2.9684  -13.3292 H       1  UNL111      0.0265
     75 H          -6.4663    3.8235  -12.2285 H       1  UNL111      0.0265
     76 C          -7.4316    2.2577  -13.3758 C.3     1  UNL111     -0.0531
     77 H          -7.1841    1.2657  -13.7626 H       1  UNL111      0.0265
     78 H          -8.2669    2.1432  -12.6802 H       1  UNL111      0.0265
     79 C          -2.9508   -8.2464   10.7264 C.3     1  UNL111     -0.0491
     80 H          -3.9517   -8.5312   11.0609 H       1  UNL111      0.0268
     81 H          -2.5503   -9.0653   10.1242 H       1  UNL111      0.0268
     82 C          -2.0373   -8.0364   11.9529 C.3     1  UNL111     -0.0528
     83 H          -2.4472   -7.2423   12.5824 H       1  UNL111      0.0265
     84 H          -1.0476   -7.7149   11.6181 H       1  UNL111      0.0265
     85 C          -1.9010   -9.3321   12.7801 C.3     1  UNL111     -0.0530
     86 H          -2.8884   -9.6546   13.1206 H       1  UNL111      0.0265
     87 H          -1.4935  -10.1259   12.1486 H       1  UNL111      0.0265
     88 C          -0.9781   -9.1208   13.9989 C.3     1  UNL111     -0.0531
     89 H           0.0041   -8.7834   13.6580 H       1  UNL111      0.0265
     90 H          -1.3928   -8.3375   14.6386 H       1  UNL111      0.0265
     91 C          -7.8525    3.1749  -14.5435 C.3     1  UNL111     -0.0533
     92 H          -7.0153    3.2884  -15.2371 H       1  UNL111      0.0265
     93 H          -8.0981    4.1676  -14.1573 H       1  UNL111      0.0265
     94 C          -0.8189  -10.4216   14.8140 C.3     1  UNL111     -0.0533
     95 H          -0.4029  -11.2041   14.1740 H       1  UNL111      0.0265
     96 H          -1.8002  -10.7609   15.1558 H       1  UNL111      0.0265
     97 C          -9.0698    2.6008  -15.2979 C.3     1  UNL111     -0.0559
     98 H          -8.8300    1.6066  -15.6832 H       1  UNL111      0.0263
     99 H          -9.9129    2.4942  -14.6107 H       1  UNL111      0.0263
    100 C           0.1051  -10.2079   16.0315 C.3     1  UNL111     -0.0559
    101 H           1.0866   -9.8655   15.6943 H       1  UNL111      0.0263
    102 H          -0.3108   -9.4313   16.6783 H       1  UNL111      0.0263
    103 C          -9.4817    3.5120  -16.4688 C.3     1  UNL111     -0.0653
    104 H          -8.6635    3.6119  -17.1860 H       1  UNL111      0.0230
    105 H         -10.3447    3.0913  -16.9896 H       1  UNL111      0.0230
    106 H          -9.7507    4.5072  -16.1072 H       1  UNL111      0.0230
    107 C           0.2735  -11.5060   16.8423 C.3     1  UNL111     -0.0653
    108 H           0.7155  -12.2917   16.2252 H       1  UNL111      0.0230
    109 H           0.9286  -11.3337   17.6992 H       1  UNL111      0.0230
    110 H          -0.6921  -11.8570   17.2138 H       1  UNL111      0.0230
@<TRIPOS>BOND
     1     1     2   ar
     2     1     6    1
     3     1    47   ar
     4     2     3   ar
     5     2     7    1
     6     3     4   ar
     7     3    18    1
     8     4     5   ar
     9     4     8    1
    10     5     9    1
    11     5    47   ar
    12    10    11   ar
    13    10    15   ar
    14    10    16    1
    15    11    12   ar
    16    11    31    1
    17    12    13   ar
    18    12    20    1
    19    13    14   ar
    20    13    17    1
    21    14    15   ar
    22    14    19    1
    23    15    32    1
    24    18    19    2
    25    20    30    2
    26    21    25   ar
    27    21    26    1
    28    21    33   ar
    29    22    23   ar
    30    22    27    1
    31    22    33   ar
    32    23    24   ar
    33    23    28    1
    34    24    25   ar
    35    24    30    1
    36    25    29    1
    37    33    34    1
    38    34    35    1
    39    35    36    2
    40    35    37    1
    41    37    38   ar
    42    37    39   ar
    43    38    40   ar
    44    38    41    1
    45    39    42   ar
    46    39    43    1
    47    40    44   ar
    48    40    45    1
    49    42    44   ar
    50    42    46    1
    51    44    61    1
    52    47    48    1
    53    48    49    1
    54    49    50    2
    55    49    51    1
    56    51    52   ar
    57    51    53   ar
    58    52    54   ar
    59    52    55    1
    60    53    56   ar
    61    53    57    1
    62    54    58   ar
    63    54    59    1
    64    56    58   ar
    65    56    60    1
    66    58    64    1
    67    61    62    1
    68    61    63    1
    69    61    67    1
    70    64    65    1
    71    64    66    1
    72    64    79    1
    73    67    68    1
    74    67    69    1
    75    67    70    1
    76    70    71    1
    77    70    72    1
    78    70    73    1
    79    73    74    1
    80    73    75    1
    81    73    76    1
    82    76    77    1
    83    76    78    1
    84    76    91    1
    85    79    80    1
    86    79    81    1
    87    79    82    1
    88    82    83    1
    89    82    84    1
    90    82    85    1
    91    85    86    1
    92    85    87    1
    93    85    88    1
    94    88    89    1
    95    88    90    1
    96    88    94    1
    97    91    92    1
    98    91    93    1
    99    91    97    1
   100    94    95    1
   101    94    96    1
   102    94   100    1
   103    97    98    1
   104    97    99    1
   105    97   103    1
   106   100   101    1
   107   100   102    1
   108   100   107    1
   109   103   104    1
   110   103   105    1
   111   103   106    1
   112   107   108    1
   113   107   109    1
   114   107   110    1
