@<TRIPOS>MOLECULE
*****
 92 96 0 0 0
SMALL
GASTEIGER

@<TRIPOS>ATOM
      1 C          -8.3253   -4.6433    3.7304 C.ar    1  UNL11      -0.0172
      2 C          -9.1329   -4.3587    2.6313 C.ar    1  UNL11      -0.0311
      3 C          -8.9144   -5.0125    1.4160 C.ar    1  UNL11       0.0864
      4 C          -7.9043   -5.9714    1.3169 C.ar    1  UNL11      -0.0311
      5 C          -7.1003   -6.2591    2.4179 C.ar    1  UNL11      -0.0172
      6 H          -8.4907   -4.1266    4.6725 H       1  UNL11       0.0655
      7 H          -9.9264   -3.6209    2.7239 H       1  UNL11       0.0640
      8 H          -7.7363   -6.4931    0.3773 H       1  UNL11       0.0640
      9 H          -6.3089   -6.9989    2.3273 H       1  UNL11       0.0655
     10 C          -6.8163   -1.3789    0.3720 C.ar    1  UNL11      -0.0392
     11 C          -7.6217   -0.3644    0.8841 C.ar    1  UNL11      -0.0330
     12 C          -9.0097   -0.5147    0.8976 C.ar    1  UNL11       0.0883
     13 C          -9.5830   -1.7052    0.4502 C.ar    1  UNL11      -0.0059
     14 C          -8.7771   -2.7367   -0.0373 C.ar    1  UNL11       0.1065
     15 C          -7.3884   -2.5585   -0.1021 C.ar    1  UNL11       0.0682
     16 H          -5.7383   -1.2435    0.3331 H       1  UNL11       0.0633
     17 H         -10.6645   -1.8268    0.4734 H       1  UNL11       0.0662
     18 N          -9.6735   -4.7622    0.3738 N.2     1  UNL11      -0.1493
     19 N          -9.3503   -3.8410   -0.4602 N.2     1  UNL11      -0.1478
     20 N          -9.7810    0.4614    1.3226 N.2     1  UNL11      -0.1492
     21 C          -9.6840    0.8955   -3.0276 C.ar    1  UNL11      -0.0172
     22 C          -7.9394    2.3107   -2.1418 C.ar    1  UNL11      -0.0172
     23 C          -8.5329    2.2599   -0.8837 C.ar    1  UNL11      -0.0311
     24 C          -9.6829    1.4948   -0.6859 C.ar    1  UNL11       0.0864
     25 C         -10.2744    0.8365   -1.7661 C.ar    1  UNL11      -0.0311
     26 H         -10.1507    0.3711   -3.8569 H       1  UNL11       0.0655
     27 H          -7.0252    2.8814   -2.2848 H       1  UNL11       0.0655
     28 H          -8.0756    2.7886   -0.0505 H       1  UNL11       0.0640
     29 H         -11.1813    0.2534   -1.6226 H       1  UNL11       0.0640
     30 N         -10.1894    1.3808    0.5212 N.2     1  UNL11      -0.1493
     31 H          -7.1666    0.5569    1.2405 H       1  UNL11       0.0640
     32 CL         -6.3440   -3.7734   -0.7654 Cl      1  UNL11      -0.0813
     33 C          -8.4935    1.6068   -3.2093 C.ar    1  UNL11       0.1321
     34 O          -7.8260    1.6550   -4.4192 O.3     1  UNL11      -0.4223
     35 C          -7.6555    0.6436   -5.3045 C.2     1  UNL11       0.3444
     36 O          -8.1589   -0.4543   -5.1627 O.2     1  UNL11      -0.2445
     37 C          -6.6959    0.9366   -6.4238 C.ar    1  UNL11       0.0594
     38 C          -6.0479    2.1733   -6.5159 C.ar    1  UNL11      -0.0475
     39 C          -6.4066   -0.0476   -7.3739 C.ar    1  UNL11      -0.0475
     40 C          -5.1114    2.4090   -7.5203 C.ar    1  UNL11      -0.0578
     41 H          -6.2479    2.9579   -5.7907 H       1  UNL11       0.0626
     42 C          -5.4780    0.1928   -8.3852 C.ar    1  UNL11      -0.0578
     43 H          -6.8953   -1.0177   -7.3234 H       1  UNL11       0.0626
     44 C          -4.8179    1.4203   -8.4603 C.ar    1  UNL11      -0.0473
     45 H          -4.6008    3.3683   -7.5584 H       1  UNL11       0.0620
     46 H          -5.2597   -0.5914   -9.1064 H       1  UNL11       0.0620
     47 C          -7.3169   -5.6003    3.6300 C.ar    1  UNL11       0.1321
     48 O          -6.5409   -5.8599    4.7424 O.3     1  UNL11      -0.4223
     49 C          -6.2841   -7.0871    5.2537 C.2     1  UNL11       0.3444
     50 O          -6.7246   -8.1076    4.7594 O.2     1  UNL11      -0.2445
     51 C          -5.4998   -7.0960    6.5359 C.ar    1  UNL11       0.0594
     52 C          -5.0304   -5.9089    7.1059 C.ar    1  UNL11      -0.0475
     53 C          -5.2496   -8.3020    7.1960 C.ar    1  UNL11      -0.0475
     54 C          -4.3465   -5.9292    8.3197 C.ar    1  UNL11      -0.0578
     55 H          -5.2032   -4.9543    6.6155 H       1  UNL11       0.0626
     56 C          -4.5676   -8.3218    8.4118 C.ar    1  UNL11      -0.0578
     57 H          -5.6041   -9.2393    6.7738 H       1  UNL11       0.0626
     58 C          -4.1152   -7.1307    8.9916 C.ar    1  UNL11      -0.0473
     59 H          -4.0023   -4.9918    8.7508 H       1  UNL11       0.0620
     60 H          -4.4095   -9.2798    8.8978 H       1  UNL11       0.0620
     61 C          -3.7641    1.6656   -9.5326 C.3     1  UNL11      -0.0277
     62 H          -2.8128    1.8834   -9.0412 H       1  UNL11       0.0313
     63 H          -3.6067    0.7570  -10.1194 H       1  UNL11       0.0313
     64 C          -3.4017   -7.0730   10.3425 C.3     1  UNL11      -0.0277
     65 H          -2.5084   -6.4572   10.2197 H       1  UNL11       0.0313
     66 H          -4.0503   -6.5496   11.0495 H       1  UNL11       0.0313
     67 C          -4.1030    2.8296  -10.4895 C.3     1  UNL11      -0.0491
     68 H          -3.2548    2.9729  -11.1619 H       1  UNL11       0.0268
     69 H          -4.2212    3.7540   -9.9194 H       1  UNL11       0.0268
     70 C          -5.3820    2.5567  -11.3152 C.3     1  UNL11      -0.0530
     71 H          -5.2511    1.6524  -11.9148 H       1  UNL11       0.0265
     72 H          -6.2174    2.3731  -10.6353 H       1  UNL11       0.0265
     73 C          -5.7617    3.7407  -12.2343 C.3     1  UNL11      -0.0559
     74 H          -5.8599    4.6539  -11.6419 H       1  UNL11       0.0263
     75 H          -6.7406    3.5389  -12.6755 H       1  UNL11       0.0263
     76 C          -4.7487    3.9694  -13.3744 C.3     1  UNL11      -0.0653
     77 H          -5.1113    4.7510  -14.0457 H       1  UNL11       0.0230
     78 H          -3.7794    4.2866  -12.9846 H       1  UNL11       0.0230
     79 H          -4.6098    3.0560  -13.9573 H       1  UNL11       0.0230
     80 C          -2.9925   -8.4321   10.9601 C.3     1  UNL11      -0.0491
     81 H          -3.8812   -9.0589   11.0630 H       1  UNL11       0.0268
     82 H          -2.3066   -8.9545   10.2895 H       1  UNL11       0.0268
     83 C          -2.3627   -8.2949   12.3692 C.3     1  UNL11      -0.0530
     84 H          -2.1515   -9.2954   12.7548 H       1  UNL11       0.0265
     85 H          -3.0998   -7.8515   13.0434 H       1  UNL11       0.0265
     86 C          -1.0650   -7.4523   12.4326 C.3     1  UNL11      -0.0559
     87 H          -1.2660   -6.4190   12.1426 H       1  UNL11       0.0263
     88 H          -0.7254   -7.4227   13.4707 H       1  UNL11       0.0263
     89 C           0.0721   -8.0245   11.5634 C.3     1  UNL11      -0.0653
     90 H           0.9884   -7.4516   11.7223 H       1  UNL11       0.0230
     91 H           0.2708   -9.0667   11.8238 H       1  UNL11       0.0230
     92 H          -0.1782   -7.9696   10.5020 H       1  UNL11       0.0230
@<TRIPOS>BOND
     1     1     2   ar
     2     1     6    1
     3     1    47   ar
     4     2     3   ar
     5     2     7    1
     6     3     4   ar
     7     3    18    1
     8     4     5   ar
     9     4     8    1
    10     5     9    1
    11     5    47   ar
    12    10    11   ar
    13    10    15   ar
    14    10    16    1
    15    11    12   ar
    16    11    31    1
    17    12    13   ar
    18    12    20    1
    19    13    14   ar
    20    13    17    1
    21    14    15   ar
    22    14    19    1
    23    15    32    1
    24    18    19    2
    25    20    30    2
    26    21    25   ar
    27    21    26    1
    28    21    33   ar
    29    22    23   ar
    30    22    27    1
    31    22    33   ar
    32    23    24   ar
    33    23    28    1
    34    24    25   ar
    35    24    30    1
    36    25    29    1
    37    33    34    1
    38    34    35    1
    39    35    36    2
    40    35    37    1
    41    37    38   ar
    42    37    39   ar
    43    38    40   ar
    44    38    41    1
    45    39    42   ar
    46    39    43    1
    47    40    44   ar
    48    40    45    1
    49    42    44   ar
    50    42    46    1
    51    44    61    1
    52    47    48    1
    53    48    49    1
    54    49    50    2
    55    49    51    1
    56    51    52   ar
    57    51    53   ar
    58    52    54   ar
    59    52    55    1
    60    53    56   ar
    61    53    57    1
    62    54    58   ar
    63    54    59    1
    64    56    58   ar
    65    56    60    1
    66    58    64    1
    67    61    62    1
    68    61    63    1
    69    61    67    1
    70    64    65    1
    71    64    66    1
    72    64    80    1
    73    67    68    1
    74    67    69    1
    75    67    70    1
    76    70    71    1
    77    70    72    1
    78    70    73    1
    79    73    74    1
    80    73    75    1
    81    73    76    1
    82    76    77    1
    83    76    78    1
    84    76    79    1
    85    80    81    1
    86    80    82    1
    87    80    83    1
    88    83    84    1
    89    83    85    1
    90    83    86    1
    91    86    87    1
    92    86    88    1
    93    86    89    1
    94    89    90    1
    95    89    91    1
    96    89    92    1
