@<TRIPOS>MOLECULE
*****
 128 132 0 0 0
SMALL
GASTEIGER

@<TRIPOS>ATOM
      1 C          -8.8807   -4.9316    3.5944 C.ar    1  UNL1       -0.0172
      2 C          -9.5369   -4.5693    2.4186 C.ar    1  UNL1       -0.0311
      3 C          -9.0946   -5.0666    1.1905 C.ar    1  UNL1        0.0864
      4 C          -8.0171   -5.9519    1.1494 C.ar    1  UNL1       -0.0311
      5 C          -7.3561   -6.3050    2.3225 C.ar    1  UNL1       -0.0172
      6 H          -9.2154   -4.5281    4.5468 H       1  UNL1        0.0655
      7 H         -10.3829   -3.8873    2.4615 H       1  UNL1        0.0640
      8 H          -7.6720   -6.3504    0.1979 H       1  UNL1        0.0640
      9 H          -6.4926   -6.9624    2.2672 H       1  UNL1        0.0655
     10 C          -6.6185   -1.5713    0.6175 C.ar    1  UNL1       -0.0392
     11 C          -7.3843   -0.5513    1.1763 C.ar    1  UNL1       -0.0330
     12 C          -8.7762   -0.5929    1.0821 C.ar    1  UNL1        0.0883
     13 C          -9.4000   -1.6905    0.4879 C.ar    1  UNL1       -0.0059
     14 C          -8.6369   -2.7292   -0.0500 C.ar    1  UNL1        0.1065
     15 C          -7.2375   -2.6495   -0.0134 C.ar    1  UNL1        0.0682
     16 H          -5.5335   -1.5142    0.6577 H       1  UNL1        0.0633
     17 H         -10.4859   -1.7265    0.4241 H       1  UNL1        0.0662
     18 N          -9.6925   -4.7226    0.0729 N.2     1  UNL1       -0.1493
     19 N          -9.2570   -3.7358   -0.6252 N.2     1  UNL1       -0.1478
     20 N          -9.5007    0.4110    1.5245 N.2     1  UNL1       -0.1492
     21 C          -9.1908    1.0362   -2.7823 C.ar    1  UNL1       -0.0172
     22 C          -7.3429    2.2270   -1.7821 C.ar    1  UNL1       -0.0172
     23 C          -7.9823    2.1835   -0.5456 C.ar    1  UNL1       -0.0311
     24 C          -9.2119    1.5348   -0.4178 C.ar    1  UNL1        0.0864
     25 C          -9.8292    0.9871   -1.5444 C.ar    1  UNL1       -0.0311
     26 H          -9.6717    0.5921   -3.6501 H       1  UNL1        0.0655
     27 H          -6.3704    2.7044   -1.8717 H       1  UNL1        0.0655
     28 H          -7.5018    2.6237    0.3251 H       1  UNL1        0.0640
     29 H         -10.7940    0.4929   -1.4553 H       1  UNL1        0.0640
     30 N          -9.7685    1.4161    0.7672 N.2     1  UNL1       -0.1493
     31 H          -6.8919    0.2971    1.6463 H       1  UNL1        0.0640
     32 CL         -6.2336   -3.8541   -0.7534 Cl      1  UNL1       -0.0813
     33 C          -7.9301    1.6293   -2.8955 C.ar    1  UNL1        0.1321
     34 O          -7.2358    1.6505   -4.0902 O.3     1  UNL1       -0.4223
     35 C          -7.0718    0.6017   -4.9320 C.2     1  UNL1        0.3444
     36 O          -7.5534   -0.4945   -4.7171 O.2     1  UNL1       -0.2445
     37 C          -6.1813    0.8583   -6.1153 C.ar    1  UNL1        0.0594
     38 C          -5.5773    2.1047   -6.3129 C.ar    1  UNL1       -0.0475
     39 C          -5.9269   -0.1666   -7.0318 C.ar    1  UNL1       -0.0475
     40 C          -4.7262    2.3147   -7.3965 C.ar    1  UNL1       -0.0578
     41 H          -5.7541    2.9207   -5.6168 H       1  UNL1        0.0626
     42 C          -5.0841    0.0471   -8.1207 C.ar    1  UNL1       -0.0578
     43 H          -6.3840   -1.1444   -6.9005 H       1  UNL1        0.0626
     44 C          -4.4747    1.2882   -8.3088 C.ar    1  UNL1       -0.0473
     45 H          -4.2584    3.2878   -7.5256 H       1  UNL1        0.0620
     46 H          -4.9016   -0.7644   -8.8214 H       1  UNL1        0.0620
     47 C          -7.7938   -5.8045    3.5519 C.ar    1  UNL1        0.1321
     48 O          -7.1296   -6.0992    4.7291 O.3     1  UNL1       -0.4223
     49 C          -6.6084   -7.3011    5.0747 C.2     1  UNL1        0.3444
     50 O          -6.8113   -8.3140    4.4321 O.2     1  UNL1       -0.2445
     51 C          -5.7321   -7.2984    6.2957 C.ar    1  UNL1        0.0594
     52 C          -5.5243   -6.1320    7.0398 C.ar    1  UNL1       -0.0475
     53 C          -5.0849   -8.4729    6.6905 C.ar    1  UNL1       -0.0475
     54 C          -4.6827   -6.1413    8.1514 C.ar    1  UNL1       -0.0578
     55 H          -6.0124   -5.2028    6.7566 H       1  UNL1        0.0626
     56 C          -4.2313   -8.4778    7.7916 C.ar    1  UNL1       -0.0578
     57 H          -5.2235   -9.3911    6.1248 H       1  UNL1        0.0626
     58 C          -4.0265   -7.3130    8.5332 C.ar    1  UNL1       -0.0473
     59 H          -4.5290   -5.2211    8.7102 H       1  UNL1        0.0620
     60 H          -3.7171   -9.3970    8.0615 H       1  UNL1        0.0620
     61 C          -3.5493    1.5191   -9.4973 C.3     1  UNL1       -0.0277
     62 H          -2.5629    1.8055   -9.1247 H       1  UNL1        0.0313
     63 H          -3.4128    0.5891  -10.0549 H       1  UNL1        0.0313
     64 C          -3.0616   -7.3070    9.7118 C.3     1  UNL1       -0.0277
     65 H          -2.0584   -7.5352    9.3431 H       1  UNL1        0.0313
     66 H          -3.0161   -6.3054   10.1472 H       1  UNL1        0.0313
     67 C          -4.0551    2.6153  -10.4601 C.3     1  UNL1       -0.0491
     68 H          -3.3229    2.7542  -11.2593 H       1  UNL1        0.0268
     69 H          -4.1172    3.5577   -9.9138 H       1  UNL1        0.0268
     70 C          -5.4275    2.2587  -11.0803 C.3     1  UNL1       -0.0528
     71 H          -5.3275    1.3295  -11.6467 H       1  UNL1        0.0265
     72 H          -6.1600    2.0633  -10.2948 H       1  UNL1        0.0265
     73 C          -5.9700    3.3557  -12.0297 C.3     1  UNL1       -0.0530
     74 H          -6.9283    3.0213  -12.4347 H       1  UNL1        0.0265
     75 H          -5.2901    3.4584  -12.8791 H       1  UNL1        0.0265
     76 C          -6.1625    4.7482  -11.3769 C.3     1  UNL1       -0.0531
     77 H          -5.1925    5.1673  -11.1006 H       1  UNL1        0.0265
     78 H          -6.5878    5.4208  -12.1260 H       1  UNL1        0.0265
     79 C          -3.4398   -8.3169   10.8173 C.3     1  UNL1       -0.0491
     80 H          -4.4463   -8.1009   11.1845 H       1  UNL1        0.0268
     81 H          -3.4496   -9.3274   10.4024 H       1  UNL1        0.0268
     82 C          -2.4350   -8.2585   11.9877 C.3     1  UNL1       -0.0528
     83 H          -2.4918   -7.2790   12.4695 H       1  UNL1        0.0265
     84 H          -1.4197   -8.3770   11.6003 H       1  UNL1        0.0265
     85 C          -2.7115   -9.3667   13.0257 C.3     1  UNL1       -0.0530
     86 H          -3.7250   -9.2584   13.4206 H       1  UNL1        0.0265
     87 H          -2.6491  -10.3425   12.5371 H       1  UNL1        0.0265
     88 C          -1.6945   -9.3074   14.1852 C.3     1  UNL1       -0.0531
     89 H          -0.6794   -9.3481   13.7815 H       1  UNL1        0.0265
     90 H          -1.8009   -8.3573   14.7151 H       1  UNL1        0.0265
     91 C          -7.0919    4.7223  -10.1415 C.3     1  UNL1       -0.0531
     92 H          -6.6643    4.0839   -9.3653 H       1  UNL1        0.0265
     93 H          -8.0616    4.3027  -10.4211 H       1  UNL1        0.0265
     94 C          -1.8959  -10.4774   15.1711 C.3     1  UNL1       -0.0531
     95 H          -1.7793  -11.4246   14.6379 H       1  UNL1        0.0265
     96 H          -2.9114  -10.4476   15.5744 H       1  UNL1        0.0265
     97 C          -7.2855    6.1378   -9.5599 C.3     1  UNL1       -0.0531
     98 H          -6.3076    6.5546   -9.3097 H       1  UNL1        0.0265
     99 H          -7.7394    6.7849  -10.3148 H       1  UNL1        0.0265
    100 C          -0.8780  -10.4109   16.3293 C.3     1  UNL1       -0.0531
    101 H           0.1367  -10.3986   15.9228 H       1  UNL1        0.0265
    102 H          -1.0216   -9.4819   16.8871 H       1  UNL1        0.0265
    103 C          -8.1811    6.1015   -8.3008 C.3     1  UNL1       -0.0531
    104 H          -7.7243    5.4668   -7.5370 H       1  UNL1        0.0265
    105 H          -9.1396    5.6467   -8.5636 H       1  UNL1        0.0265
    106 C          -1.0320  -11.6153   17.2818 C.3     1  UNL1       -0.0531
    107 H          -0.8764  -12.5422   16.7235 H       1  UNL1        0.0265
    108 H          -2.0486  -11.6374   17.6827 H       1  UNL1        0.0265
    109 C          -8.4522    7.5059   -7.7142 C.3     1  UNL1       -0.0533
    110 H          -9.2239    7.4133   -6.9459 H       1  UNL1        0.0265
    111 H          -8.8520    8.1601   -8.4932 H       1  UNL1        0.0265
    112 C          -0.0206  -11.5395   18.4451 C.3     1  UNL1       -0.0533
    113 H           0.9952  -11.4969   18.0437 H       1  UNL1        0.0265
    114 H          -0.1894  -10.6221   19.0150 H       1  UNL1        0.0265
    115 C          -7.1950    8.1461   -7.0826 C.3     1  UNL1       -0.0559
    116 H          -6.4320    8.3140   -7.8454 H       1  UNL1        0.0263
    117 H          -6.7726    7.4703   -6.3347 H       1  UNL1        0.0263
    118 C          -0.1514  -12.7593   19.3812 C.3     1  UNL1       -0.0559
    119 H           0.0278  -13.6778   18.8167 H       1  UNL1        0.0263
    120 H          -1.1670  -12.8107   19.7813 H       1  UNL1        0.0263
    121 C           0.8496  -12.6791   20.5485 C.3     1  UNL1       -0.0653
    122 H           0.7454  -13.5524   21.1963 H       1  UNL1        0.0230
    123 H           1.8761  -12.6493   20.1755 H       1  UNL1        0.0230
    124 H           0.6713  -11.7837   21.1486 H       1  UNL1        0.0230
    125 C          -7.5307    9.4919   -6.4142 C.3     1  UNL1       -0.0653
    126 H          -8.2682    9.3555   -5.6199 H       1  UNL1        0.0230
    127 H          -6.6316    9.9302   -5.9753 H       1  UNL1        0.0230
    128 H          -7.9334   10.1960   -7.1461 H       1  UNL1        0.0230
@<TRIPOS>BOND
     1     1     2   ar
     2     1     6    1
     3     1    47   ar
     4     2     3   ar
     5     2     7    1
     6     3     4   ar
     7     3    18    1
     8     4     5   ar
     9     4     8    1
    10     5     9    1
    11     5    47   ar
    12    10    11   ar
    13    10    15   ar
    14    10    16    1
    15    11    12   ar
    16    11    31    1
    17    12    13   ar
    18    12    20    1
    19    13    14   ar
    20    13    17    1
    21    14    15   ar
    22    14    19    1
    23    15    32    1
    24    18    19    2
    25    20    30    2
    26    21    25   ar
    27    21    26    1
    28    21    33   ar
    29    22    23   ar
    30    22    27    1
    31    22    33   ar
    32    23    24   ar
    33    23    28    1
    34    24    25   ar
    35    24    30    1
    36    25    29    1
    37    33    34    1
    38    34    35    1
    39    35    36    2
    40    35    37    1
    41    37    38   ar
    42    37    39   ar
    43    38    40   ar
    44    38    41    1
    45    39    42   ar
    46    39    43    1
    47    40    44   ar
    48    40    45    1
    49    42    44   ar
    50    42    46    1
    51    44    61    1
    52    47    48    1
    53    48    49    1
    54    49    50    2
    55    49    51    1
    56    51    52   ar
    57    51    53   ar
    58    52    54   ar
    59    52    55    1
    60    53    56   ar
    61    53    57    1
    62    54    58   ar
    63    54    59    1
    64    56    58   ar
    65    56    60    1
    66    58    64    1
    67    61    62    1
    68    61    63    1
    69    61    67    1
    70    64    65    1
    71    64    66    1
    72    64    79    1
    73    67    68    1
    74    67    69    1
    75    67    70    1
    76    70    71    1
    77    70    72    1
    78    70    73    1
    79    73    74    1
    80    73    75    1
    81    73    76    1
    82    76    77    1
    83    76    78    1
    84    76    91    1
    85    79    80    1
    86    79    81    1
    87    79    82    1
    88    82    83    1
    89    82    84    1
    90    82    85    1
    91    85    86    1
    92    85    87    1
    93    85    88    1
    94    88    89    1
    95    88    90    1
    96    88    94    1
    97    91    92    1
    98    91    93    1
    99    91    97    1
   100    94    95    1
   101    94    96    1
   102    94   100    1
   103    97    98    1
   104    97    99    1
   105    97   103    1
   106   100   101    1
   107   100   102    1
   108   100   106    1
   109   103   104    1
   110   103   105    1
   111   103   109    1
   112   106   107    1
   113   106   108    1
   114   106   112    1
   115   109   110    1
   116   109   111    1
   117   109   115    1
   118   112   113    1
   119   112   114    1
   120   112   118    1
   121   115   116    1
   122   115   117    1
   123   115   125    1
   124   118   119    1
   125   118   120    1
   126   118   121    1
   127   121   122    1
   128   121   123    1
   129   121   124    1
   130   125   126    1
   131   125   127    1
   132   125   128    1
