@<TRIPOS>MOLECULE
*****
 116 120 0 0 0
SMALL
GASTEIGER

@<TRIPOS>ATOM
      1 C          -8.7182   -4.6444    3.6164 C.ar    1  UNL1       -0.0172
      2 C          -9.4419   -4.3829    2.4546 C.ar    1  UNL1       -0.0311
      3 C          -9.0623   -4.9745    1.2469 C.ar    1  UNL1        0.0864
      4 C          -7.9852   -5.8622    1.2175 C.ar    1  UNL1       -0.0311
      5 C          -7.2670   -6.1292    2.3807 C.ar    1  UNL1       -0.0172
      6 H          -9.0011   -4.1663    4.5509 H       1  UNL1        0.0655
      7 H         -10.2891   -3.7021    2.4904 H       1  UNL1        0.0640
      8 H          -7.6916   -6.3358    0.2833 H       1  UNL1        0.0640
      9 H          -6.4163   -6.8052    2.3462 H       1  UNL1        0.0655
     10 C          -6.8053   -1.4010    0.4405 C.ar    1  UNL1       -0.0392
     11 C          -7.5947   -0.4078    1.0153 C.ar    1  UNL1       -0.0330
     12 C          -8.9857   -0.5231    0.9956 C.ar    1  UNL1        0.0883
     13 C          -9.5801   -1.6609    0.4489 C.ar    1  UNL1       -0.0059
     14 C          -8.7914   -2.6729   -0.1029 C.ar    1  UNL1        0.1065
     15 C          -7.3977   -2.5259   -0.1321 C.ar    1  UNL1        0.0682
     16 H          -5.7237   -1.2913    0.4302 H       1  UNL1        0.0633
     17 H         -10.6643   -1.7560    0.4453 H       1  UNL1        0.0662
     18 N          -9.7202   -4.7184    0.1390 N.2     1  UNL1       -0.1493
     19 N          -9.3846   -3.7306   -0.6111 N.2     1  UNL1       -0.1478
     20 N          -9.7385    0.4406    1.4782 N.2     1  UNL1       -0.1492
     21 C          -9.7939    1.0315   -2.8454 C.ar    1  UNL1       -0.0172
     22 C          -7.9327    2.3120   -1.9902 C.ar    1  UNL1       -0.0172
     23 C          -8.4776    2.2540   -0.7106 C.ar    1  UNL1       -0.0311
     24 C          -9.6634    1.5519   -0.4891 C.ar    1  UNL1        0.0864
     25 C         -10.3371    0.9670   -1.5636 C.ar    1  UNL1       -0.0311
     26 H         -10.3161    0.5567   -3.6720 H       1  UNL1        0.0655
     27 H          -6.9897    2.8277   -2.1535 H       1  UNL1        0.0655
     28 H          -7.9543    2.7226    0.1198 H       1  UNL1        0.0640
     29 H         -11.2693    0.4310   -1.3999 H       1  UNL1        0.0640
     30 N         -10.1233    1.4172    0.7343 N.2     1  UNL1       -0.1493
     31 H          -7.1239    0.4721    1.4480 H       1  UNL1        0.0640
     32 CL         -6.3713   -3.7127   -0.8702 Cl      1  UNL1       -0.0813
     33 C          -8.5715    1.6769   -3.0533 C.ar    1  UNL1        0.1321
     34 O          -7.9532    1.7067   -4.2882 O.3     1  UNL1       -0.4223
     35 C          -7.7971    0.6568   -5.1297 C.2     1  UNL1        0.3444
     36 O          -8.2749   -0.4402   -4.9110 O.2     1  UNL1       -0.2445
     37 C          -6.8753    0.9028   -6.2907 C.ar    1  UNL1        0.0594
     38 C          -6.2624    2.1467   -6.4777 C.ar    1  UNL1       -0.0475
     39 C          -6.5830   -0.1340   -7.1824 C.ar    1  UNL1       -0.0475
     40 C          -5.3517    2.3378   -7.5149 C.ar    1  UNL1       -0.0578
     41 H          -6.4695    2.9724   -5.8017 H       1  UNL1        0.0626
     42 C          -5.6760    0.0593   -8.2228 C.ar    1  UNL1       -0.0578
     43 H          -7.0461   -1.1100   -7.0582 H       1  UNL1        0.0626
     44 C          -5.0451    1.2929   -8.3869 C.ar    1  UNL1       -0.0473
     45 H          -4.8668    3.3044   -7.6305 H       1  UNL1        0.0620
     46 H          -5.4482   -0.7659   -8.8935 H       1  UNL1        0.0620
     47 C          -7.6345   -5.5201    3.5816 C.ar    1  UNL1        0.1321
     48 O          -6.9114   -5.7402    4.7357 O.3     1  UNL1       -0.4223
     49 C          -6.6576   -6.9565    5.2710 C.2     1  UNL1        0.3444
     50 O          -7.1340   -7.9801    4.8177 O.2     1  UNL1       -0.2445
     51 C          -5.7671   -6.9542    6.4815 C.ar    1  UNL1        0.0594
     52 C          -5.2205   -5.7660    6.9754 C.ar    1  UNL1       -0.0475
     53 C          -5.4663   -8.1534    7.1329 C.ar    1  UNL1       -0.0475
     54 C          -4.3914   -5.7807    8.0951 C.ar    1  UNL1       -0.0578
     55 H          -5.4308   -4.8168    6.4891 H       1  UNL1        0.0626
     56 C          -4.6392   -8.1675    8.2551 C.ar    1  UNL1       -0.0578
     57 H          -5.8793   -9.0910    6.7685 H       1  UNL1        0.0626
     58 C          -4.0925   -6.9773    8.7487 C.ar    1  UNL1       -0.0473
     59 H          -3.9735   -4.8448    8.4591 H       1  UNL1        0.0620
     60 H          -4.4316   -9.1211    8.7318 H       1  UNL1        0.0620
     61 C          -4.0045    1.4889   -9.4779 C.3     1  UNL1       -0.0277
     62 H          -3.1237    1.9706   -9.0456 H       1  UNL1        0.0313
     63 H          -3.6772    0.5165   -9.8549 H       1  UNL1        0.0313
     64 C          -3.1738   -6.9213    9.9685 C.3     1  UNL1       -0.0277
     65 H          -2.1988   -6.5461    9.6474 H       1  UNL1        0.0313
     66 H          -3.5780   -6.1835   10.6665 H       1  UNL1        0.0313
     67 C          -4.5281    2.3400  -10.6519 C.3     1  UNL1       -0.0491
     68 H          -4.8458    3.3182  -10.2823 H       1  UNL1        0.0268
     69 H          -5.4016    1.8531  -11.0931 H       1  UNL1        0.0268
     70 C          -3.4353    2.5237  -11.7259 C.3     1  UNL1       -0.0528
     71 H          -2.5586    2.9975  -11.2767 H       1  UNL1        0.0265
     72 H          -3.1260    1.5444  -12.1002 H       1  UNL1        0.0265
     73 C          -3.9387    3.3864  -12.9011 C.3     1  UNL1       -0.0530
     74 H          -4.2300    4.3732  -12.5324 H       1  UNL1        0.0265
     75 H          -4.8256    2.9157  -13.3310 H       1  UNL1        0.0265
     76 C          -2.8446    3.5384  -13.9821 C.3     1  UNL1       -0.0531
     77 H          -1.9445    3.9496  -13.5182 H       1  UNL1        0.0265
     78 H          -2.5714    2.5562  -14.3738 H       1  UNL1        0.0265
     79 C          -2.9651   -8.2507   10.7288 C.3     1  UNL1       -0.0491
     80 H          -3.9320   -8.6422   11.0553 H       1  UNL1        0.0268
     81 H          -2.5096   -8.9871   10.0619 H       1  UNL1        0.0268
     82 C          -2.0548   -8.0477   11.9587 C.3     1  UNL1       -0.0528
     83 H          -2.5094   -7.3154   12.6310 H       1  UNL1        0.0265
     84 H          -1.0908   -7.6457   11.6362 H       1  UNL1        0.0265
     85 C          -1.8295   -9.3717   12.7188 C.3     1  UNL1       -0.0530
     86 H          -2.7928   -9.7785   13.0374 H       1  UNL1        0.0265
     87 H          -1.3663  -10.1022   12.0505 H       1  UNL1        0.0265
     88 C          -0.9277   -9.1563   13.9525 C.3     1  UNL1       -0.0531
     89 H           0.0342   -8.7462   13.6338 H       1  UNL1        0.0265
     90 H          -1.3929   -8.4263   14.6201 H       1  UNL1        0.0265
     91 C          -3.2590    4.4770  -15.1419 C.3     1  UNL1       -0.0531
     92 H          -2.4228    4.5578  -15.8409 H       1  UNL1        0.0265
     93 H          -3.4286    5.4795  -14.7415 H       1  UNL1        0.0265
     94 C          -0.6952  -10.4764   14.7171 C.3     1  UNL1       -0.0531
     95 H          -0.2234  -11.2048   14.0525 H       1  UNL1        0.0265
     96 H          -1.6567  -10.8899   15.0321 H       1  UNL1        0.0265
     97 C          -4.5222    4.0348  -15.9215 C.3     1  UNL1       -0.0533
     98 H          -5.3928    4.0436  -15.2621 H       1  UNL1        0.0265
     99 H          -4.7154    4.7751  -16.7019 H       1  UNL1        0.0265
    100 C           0.1993  -10.2526   15.9548 C.3     1  UNL1       -0.0533
    101 H           1.1605   -9.8381   15.6400 H       1  UNL1        0.0265
    102 H          -0.2731   -9.5238   16.6186 H       1  UNL1        0.0265
    103 C          -4.3754    2.6438  -16.5789 C.3     1  UNL1       -0.0559
    104 H          -4.2483    1.8760  -15.8128 H       1  UNL1        0.0263
    105 H          -3.4879    2.6276  -17.2163 H       1  UNL1        0.0263
    106 C           0.4342  -11.5704   16.7226 C.3     1  UNL1       -0.0559
    107 H           0.9117  -12.3007   16.0645 H       1  UNL1        0.0263
    108 H          -0.5243  -11.9887   17.0396 H       1  UNL1        0.0263
    109 C          -5.6141    2.2942  -17.4235 C.3     1  UNL1       -0.0653
    110 H          -5.7547    3.0240  -18.2241 H       1  UNL1        0.0230
    111 H          -5.4964    1.3069  -17.8756 H       1  UNL1        0.0230
    112 H          -6.5126    2.2816  -16.8019 H       1  UNL1        0.0230
    113 C           1.3229  -11.3460   17.9599 C.3     1  UNL1       -0.0653
    114 H           1.4782  -12.2886   18.4895 H       1  UNL1        0.0230
    115 H           2.2991  -10.9520   17.6676 H       1  UNL1        0.0230
    116 H           0.8543  -10.6389   18.6484 H       1  UNL1        0.0230
@<TRIPOS>BOND
     1     1     2   ar
     2     1     6    1
     3     1    47   ar
     4     2     3   ar
     5     2     7    1
     6     3     4   ar
     7     3    18    1
     8     4     5   ar
     9     4     8    1
    10     5     9    1
    11     5    47   ar
    12    10    11   ar
    13    10    15   ar
    14    10    16    1
    15    11    12   ar
    16    11    31    1
    17    12    13   ar
    18    12    20    1
    19    13    14   ar
    20    13    17    1
    21    14    15   ar
    22    14    19    1
    23    15    32    1
    24    18    19    2
    25    20    30    2
    26    21    25   ar
    27    21    26    1
    28    21    33   ar
    29    22    23   ar
    30    22    27    1
    31    22    33   ar
    32    23    24   ar
    33    23    28    1
    34    24    25   ar
    35    24    30    1
    36    25    29    1
    37    33    34    1
    38    34    35    1
    39    35    36    2
    40    35    37    1
    41    37    38   ar
    42    37    39   ar
    43    38    40   ar
    44    38    41    1
    45    39    42   ar
    46    39    43    1
    47    40    44   ar
    48    40    45    1
    49    42    44   ar
    50    42    46    1
    51    44    61    1
    52    47    48    1
    53    48    49    1
    54    49    50    2
    55    49    51    1
    56    51    52   ar
    57    51    53   ar
    58    52    54   ar
    59    52    55    1
    60    53    56   ar
    61    53    57    1
    62    54    58   ar
    63    54    59    1
    64    56    58   ar
    65    56    60    1
    66    58    64    1
    67    61    62    1
    68    61    63    1
    69    61    67    1
    70    64    65    1
    71    64    66    1
    72    64    79    1
    73    67    68    1
    74    67    69    1
    75    67    70    1
    76    70    71    1
    77    70    72    1
    78    70    73    1
    79    73    74    1
    80    73    75    1
    81    73    76    1
    82    76    77    1
    83    76    78    1
    84    76    91    1
    85    79    80    1
    86    79    81    1
    87    79    82    1
    88    82    83    1
    89    82    84    1
    90    82    85    1
    91    85    86    1
    92    85    87    1
    93    85    88    1
    94    88    89    1
    95    88    90    1
    96    88    94    1
    97    91    92    1
    98    91    93    1
    99    91    97    1
   100    94    95    1
   101    94    96    1
   102    94   100    1
   103    97    98    1
   104    97    99    1
   105    97   103    1
   106   100   101    1
   107   100   102    1
   108   100   106    1
   109   103   104    1
   110   103   105    1
   111   103   109    1
   112   106   107    1
   113   106   108    1
   114   106   113    1
   115   109   110    1
   116   109   111    1
   117   109   112    1
   118   113   114    1
   119   113   115    1
   120   113   116    1
