@<TRIPOS>MOLECULE
*****
 104 108 0 0 0
SMALL
GASTEIGER

@<TRIPOS>ATOM
      1 C          -6.8399   -6.0016    2.7789 C.ar    1  UNL1       -0.0172
      2 C          -6.9131   -5.6943    1.4218 C.ar    1  UNL1       -0.0311
      3 C          -5.7886   -5.8492    0.6087 C.ar    1  UNL1        0.0864
      4 C          -4.5991   -6.3358    1.1538 C.ar    1  UNL1       -0.0311
      5 C          -4.5261   -6.6404    2.5111 C.ar    1  UNL1       -0.0172
      6 H          -7.7136   -5.8685    3.4120 H       1  UNL1        0.0655
      7 H          -7.8459   -5.3242    1.0025 H       1  UNL1        0.0640
      8 H          -3.7220   -6.4696    0.5250 H       1  UNL1        0.0640
      9 H          -3.5883   -6.9964    2.9297 H       1  UNL1        0.0655
     10 C          -3.3134   -2.2110    0.6893 C.ar    1  UNL1       -0.0392
     11 C          -4.2151   -1.4197    1.3970 C.ar    1  UNL1       -0.0330
     12 C          -5.5877   -1.6121    1.2356 C.ar    1  UNL1        0.0883
     13 C          -6.0545   -2.6216    0.3930 C.ar    1  UNL1       -0.0059
     14 C          -5.1538   -3.4314   -0.3022 C.ar    1  UNL1        0.1065
     15 C          -3.7767   -3.2091   -0.1670 C.ar    1  UNL1        0.0682
     16 H          -2.2451   -2.0443    0.8030 H       1  UNL1        0.0633
     17 H          -7.1252   -2.7760    0.2747 H       1  UNL1        0.0662
     18 N          -5.8552   -5.5572   -0.6702 N.2     1  UNL1       -0.1493
     19 N          -5.6183   -4.3688   -1.0991 N.2     1  UNL1       -0.1478
     20 N          -6.4407   -0.8524    1.8842 N.2     1  UNL1       -0.1492
     21 C          -6.9829    0.5898   -2.1997 C.ar    1  UNL1       -0.0172
     22 C          -5.0577    1.7830   -1.3590 C.ar    1  UNL1       -0.0172
     23 C          -5.4003    1.4208   -0.0581 C.ar    1  UNL1       -0.0311
     24 C          -6.5255    0.6272    0.1725 C.ar    1  UNL1        0.0864
     25 C          -7.3272    0.2282   -0.8990 C.ar    1  UNL1       -0.0311
     26 H          -7.6092    0.2725   -3.0297 H       1  UNL1        0.0655
     27 H          -4.1756    2.3929   -1.5374 H       1  UNL1        0.0655
     28 H          -4.7809    1.7487    0.7736 H       1  UNL1        0.0640
     29 H          -8.2149   -0.3756   -0.7247 H       1  UNL1        0.0640
     30 N          -6.8361    0.2697    1.3978 N.2     1  UNL1       -0.1493
     31 H          -3.8453   -0.6403    2.0597 H       1  UNL1        0.0640
     32 CL         -2.6139   -4.1516   -1.0428 Cl      1  UNL1       -0.0813
     33 C          -5.8366    1.3534   -2.4319 C.ar    1  UNL1        0.1321
     34 O          -5.4729    1.7298   -3.7093 O.3     1  UNL1       -0.4223
     35 C          -5.3694    0.8966   -4.7713 C.2     1  UNL1        0.3444
     36 O          -5.5319   -0.3053   -4.6767 O.2     1  UNL1       -0.2445
     37 C          -5.0013    1.5530   -6.0721 C.ar    1  UNL1        0.0594
     38 C          -4.8021    2.9356   -6.1553 C.ar    1  UNL1       -0.0475
     39 C          -4.8509    0.7793   -7.2270 C.ar    1  UNL1       -0.0475
     40 C          -4.4584    3.5297   -7.3684 C.ar    1  UNL1       -0.0578
     41 H          -4.9126    3.5636   -5.2749 H       1  UNL1        0.0626
     42 C          -4.5081    1.3740   -8.4398 C.ar    1  UNL1       -0.0578
     43 H          -5.0003   -0.2971   -7.1882 H       1  UNL1        0.0626
     44 C          -4.3108    2.7527   -8.5182 C.ar    1  UNL1       -0.0473
     45 H          -4.3100    4.6061   -7.4134 H       1  UNL1        0.0620
     46 H          -4.3961    0.7557   -9.3275 H       1  UNL1        0.0620
     47 C          -5.6513   -6.4838    3.3246 C.ar    1  UNL1        0.1321
     48 O          -5.6061   -6.7528    4.6791 O.3     1  UNL1       -0.4223
     49 C          -5.0540   -7.8471    5.2546 C.2     1  UNL1        0.3444
     50 O          -4.5967   -8.7690    4.6059 O.2     1  UNL1       -0.2445
     51 C          -5.0684   -7.8601    6.7575 C.ar    1  UNL1        0.0594
     52 C          -5.6184   -6.8001    7.4869 C.ar    1  UNL1       -0.0475
     53 C          -4.5230   -8.9446    7.4514 C.ar    1  UNL1       -0.0475
     54 C          -5.6232   -6.8267    8.8804 C.ar    1  UNL1       -0.0578
     55 H          -6.0502   -5.9434    6.9757 H       1  UNL1        0.0626
     56 C          -4.5248   -8.9689    8.8447 C.ar    1  UNL1       -0.0578
     57 H          -4.0891   -9.7803    6.9077 H       1  UNL1        0.0626
     58 C          -5.0766   -7.9112    9.5678 C.ar    1  UNL1       -0.0473
     59 H          -6.0591   -5.9950    9.4290 H       1  UNL1        0.0620
     60 H          -4.0948   -9.8208    9.3665 H       1  UNL1        0.0620
     61 C          -3.9380    3.3985   -9.8449 C.3     1  UNL1       -0.0277
     62 H          -3.5071    4.3882   -9.6731 H       1  UNL1        0.0313
     63 H          -3.1566    2.8007  -10.3207 H       1  UNL1        0.0313
     64 C          -5.0818   -7.9442   11.0896 C.3     1  UNL1       -0.0277
     65 H          -4.0801   -8.2041   11.4406 H       1  UNL1        0.0313
     66 H          -5.2998   -6.9494   11.4864 H       1  UNL1        0.0313
     67 C          -5.1296    3.5217  -10.8195 C.3     1  UNL1       -0.0491
     68 H          -5.5565    2.5325  -11.0026 H       1  UNL1        0.0268
     69 H          -4.7498    3.8938  -11.7731 H       1  UNL1        0.0268
     70 C          -6.2260    4.4753  -10.2875 C.3     1  UNL1       -0.0528
     71 H          -6.5740    4.1145   -9.3169 H       1  UNL1        0.0265
     72 H          -5.8051    5.4686  -10.1181 H       1  UNL1        0.0265
     73 C          -7.4570    4.5670  -11.2228 C.3     1  UNL1       -0.0531
     74 H          -8.2138    5.1924  -10.7428 H       1  UNL1        0.0265
     75 H          -7.8962    3.5717  -11.3261 H       1  UNL1        0.0265
     76 C          -7.1676    5.1309  -12.6360 C.3     1  UNL1       -0.0533
     77 H          -6.4697    4.4806  -13.1675 H       1  UNL1        0.0265
     78 H          -8.1015    5.1149  -13.2035 H       1  UNL1        0.0265
     79 C          -6.0906   -8.9580   11.6724 C.3     1  UNL1       -0.0491
     80 H          -5.8530   -9.9609   11.3090 H       1  UNL1        0.0268
     81 H          -5.9818   -8.9743   12.7597 H       1  UNL1        0.0268
     82 C          -7.5511   -8.6059   11.3121 C.3     1  UNL1       -0.0528
     83 H          -7.6781   -8.6194   10.2267 H       1  UNL1        0.0265
     84 H          -7.7796   -7.5952   11.6597 H       1  UNL1        0.0265
     85 C          -8.5374   -9.6061   11.9508 C.3     1  UNL1       -0.0531
     86 H          -8.3037  -10.6173   11.6075 H       1  UNL1        0.0265
     87 H          -8.4204   -9.5906   13.0375 H       1  UNL1        0.0265
     88 C          -9.9970   -9.2638   11.5853 C.3     1  UNL1       -0.0533
     89 H         -10.2319   -8.2531   11.9290 H       1  UNL1        0.0265
     90 H         -10.1139   -9.2789   10.4985 H       1  UNL1        0.0265
     91 C          -6.6251    6.5777  -12.6123 C.3     1  UNL1       -0.0559
     92 H          -5.6498    6.6064  -12.1219 H       1  UNL1        0.0263
     93 H          -7.3030    7.2175  -12.0420 H       1  UNL1        0.0263
     94 C         -10.9819  -10.2665   12.2227 C.3     1  UNL1       -0.0559
     95 H         -10.8707  -10.2524   13.3098 H       1  UNL1        0.0263
     96 H         -10.7510  -11.2784   11.8806 H       1  UNL1        0.0263
     97 C          -6.4773    7.1407  -14.0378 C.3     1  UNL1       -0.0653
     98 H          -6.0894    8.1612  -14.0024 H       1  UNL1        0.0230
     99 H          -5.7854    6.5308  -14.6233 H       1  UNL1        0.0230
    100 H          -7.4431    7.1587  -14.5482 H       1  UNL1        0.0230
    101 C         -12.4392   -9.9291   11.8581 C.3     1  UNL1       -0.0653
    102 H         -13.1199  -10.6490   12.3180 H       1  UNL1        0.0230
    103 H         -12.7047   -8.9307   12.2135 H       1  UNL1        0.0230
    104 H         -12.5840   -9.9633   10.7758 H       1  UNL1        0.0230
@<TRIPOS>BOND
     1     1     2   ar
     2     1     6    1
     3     1    47   ar
     4     2     3   ar
     5     2     7    1
     6     3     4   ar
     7     3    18    1
     8     4     5   ar
     9     4     8    1
    10     5     9    1
    11     5    47   ar
    12    10    11   ar
    13    10    15   ar
    14    10    16    1
    15    11    12   ar
    16    11    31    1
    17    12    13   ar
    18    12    20    1
    19    13    14   ar
    20    13    17    1
    21    14    15   ar
    22    14    19    1
    23    15    32    1
    24    18    19    2
    25    20    30    2
    26    21    25   ar
    27    21    26    1
    28    21    33   ar
    29    22    23   ar
    30    22    27    1
    31    22    33   ar
    32    23    24   ar
    33    23    28    1
    34    24    25   ar
    35    24    30    1
    36    25    29    1
    37    33    34    1
    38    34    35    1
    39    35    36    2
    40    35    37    1
    41    37    38   ar
    42    37    39   ar
    43    38    40   ar
    44    38    41    1
    45    39    42   ar
    46    39    43    1
    47    40    44   ar
    48    40    45    1
    49    42    44   ar
    50    42    46    1
    51    44    61    1
    52    47    48    1
    53    48    49    1
    54    49    50    2
    55    49    51    1
    56    51    52   ar
    57    51    53   ar
    58    52    54   ar
    59    52    55    1
    60    53    56   ar
    61    53    57    1
    62    54    58   ar
    63    54    59    1
    64    56    58   ar
    65    56    60    1
    66    58    64    1
    67    61    62    1
    68    61    63    1
    69    61    67    1
    70    64    65    1
    71    64    66    1
    72    64    79    1
    73    67    68    1
    74    67    69    1
    75    67    70    1
    76    70    71    1
    77    70    72    1
    78    70    73    1
    79    73    74    1
    80    73    75    1
    81    73    76    1
    82    76    77    1
    83    76    78    1
    84    76    91    1
    85    79    80    1
    86    79    81    1
    87    79    82    1
    88    82    83    1
    89    82    84    1
    90    82    85    1
    91    85    86    1
    92    85    87    1
    93    85    88    1
    94    88    89    1
    95    88    90    1
    96    88    94    1
    97    91    92    1
    98    91    93    1
    99    91    97    1
   100    94    95    1
   101    94    96    1
   102    94   101    1
   103    97    98    1
   104    97    99    1
   105    97   100    1
   106   101   102    1
   107   101   103    1
   108   101   104    1
