@<TRIPOS>MOLECULE
*****
 98 102 0 0 0
SMALL
GASTEIGER

@<TRIPOS>ATOM
      1 C          -8.7114   -4.7412    3.6881 C.ar    1  UNL11      -0.0172
      2 C          -9.4043   -4.4280    2.5194 C.ar    1  UNL11      -0.0311
      3 C          -9.0227   -5.0038    1.3052 C.ar    1  UNL11       0.0864
      4 C          -7.9640   -5.9123    1.2717 C.ar    1  UNL11      -0.0311
      5 C          -7.2708   -6.2227    2.4390 C.ar    1  UNL11      -0.0172
      6 H          -9.0022   -4.2817    4.6294 H       1  UNL11       0.0655
      7 H         -10.2359   -3.7282    2.5576 H       1  UNL11       0.0640
      8 H          -7.6672   -6.3725    0.3318 H       1  UNL11       0.0640
      9 H          -6.4326   -6.9133    2.3943 H       1  UNL11       0.0655
     10 C          -6.7520   -1.3949    0.5178 C.ar    1  UNL11      -0.0392
     11 C          -7.5712   -0.3845    1.0156 C.ar    1  UNL11      -0.0330
     12 C          -8.9595   -0.5111    0.9404 C.ar    1  UNL11       0.0883
     13 C          -9.5230   -1.6748    0.4161 C.ar    1  UNL11      -0.0059
     14 C          -8.7053   -2.7013   -0.0612 C.ar    1  UNL11       0.1065
     15 C          -7.3125   -2.5455   -0.0353 C.ar    1  UNL11       0.0682
     16 H          -5.6716   -1.2773    0.5493 H       1  UNL11       0.0633
     17 H         -10.6055   -1.7761    0.3656 H       1  UNL11       0.0662
     18 N          -9.6696   -4.7236    0.1970 N.2     1  UNL11      -0.1493
     19 N          -9.2699   -3.7741   -0.5693 N.2     1  UNL11      -0.1478
     20 N          -9.7389    0.4692    1.3400 N.2     1  UNL11      -0.1492
     21 C          -9.4327    0.9039   -2.9871 C.ar    1  UNL11      -0.0172
     22 C          -7.7070    2.2989   -2.0318 C.ar    1  UNL11      -0.0172
     23 C          -8.3557    2.2614   -0.8005 C.ar    1  UNL11      -0.0311
     24 C          -9.5274    1.5174   -0.6517 C.ar    1  UNL11       0.0864
     25 C         -10.0812    0.8627   -1.7543 C.ar    1  UNL11      -0.0311
     26 H          -9.8619    0.3784   -3.8364 H       1  UNL11       0.0655
     27 H          -6.7795    2.8558   -2.1384 H       1  UNL11       0.0655
     28 H          -7.9276    2.7863    0.0503 H       1  UNL11       0.0640
     29 H         -11.0028    0.2947   -1.6492 H       1  UNL11       0.0640
     30 N         -10.0850    1.4099    0.5332 N.2     1  UNL11      -0.1493
     31 H          -7.1248    0.5161    1.4314 H       1  UNL11       0.0640
     32 CL         -6.2479   -3.7491   -0.6869 Cl      1  UNL11      -0.0813
     33 C          -8.2267    1.5979   -3.1179 C.ar    1  UNL11       0.1321
     34 O          -7.5206    1.6202   -4.3042 O.3     1  UNL11      -0.4223
     35 C          -7.2405    0.5480   -5.0826 C.2     1  UNL11       0.3444
     36 O          -7.6226   -0.5760   -4.8172 O.2     1  UNL11      -0.2445
     37 C          -6.3523    0.8290   -6.2613 C.ar    1  UNL11       0.0594
     38 C          -5.8688    2.1180   -6.5108 C.ar    1  UNL11      -0.0475
     39 C          -5.9807   -0.2092   -7.1212 C.ar    1  UNL11      -0.0475
     40 C          -5.0262    2.3602   -7.5935 C.ar    1  UNL11      -0.0578
     41 H          -6.1388    2.9458   -5.8600 H       1  UNL11       0.0626
     42 C          -5.1448    0.0353   -8.2093 C.ar    1  UNL11      -0.0578
     43 H          -6.3432   -1.2197   -6.9481 H       1  UNL11       0.0626
     44 C          -4.6608    1.3217   -8.4504 C.ar    1  UNL11      -0.0473
     45 H          -4.6579    3.3681   -7.7698 H       1  UNL11       0.0620
     46 H          -4.8728   -0.7851   -8.8694 H       1  UNL11       0.0620
     47 C          -7.6513   -5.6463    3.6535 C.ar    1  UNL11       0.1321
     48 O          -6.9664   -5.9178    4.8236 O.3     1  UNL11      -0.4223
     49 C          -6.5745   -7.1449    5.2429 C.2     1  UNL11       0.3444
     50 O          -6.8963   -8.1670    4.6668 O.2     1  UNL11      -0.2445
     51 C          -5.7064   -7.1645    6.4700 C.ar    1  UNL11       0.0594
     52 C          -5.3551   -5.9841    7.1321 C.ar    1  UNL11      -0.0475
     53 C          -5.2173   -8.3790    6.9585 C.ar    1  UNL11      -0.0475
     54 C          -4.5286   -6.0211    8.2543 C.ar    1  UNL11      -0.0578
     55 H          -5.7171   -5.0231    6.7757 H       1  UNL11       0.0626
     56 C          -4.3830   -8.4146    8.0742 C.ar    1  UNL11      -0.0578
     57 H          -5.4717   -9.3110    6.4595 H       1  UNL11       0.0626
     58 C          -4.0323   -7.2341    8.7370 C.ar    1  UNL11      -0.0473
     59 H          -4.2607   -5.0890    8.7464 H       1  UNL11       0.0620
     60 H          -4.0054   -9.3763    8.4084 H       1  UNL11       0.0620
     61 C          -3.7602    1.5988   -9.6437 C.3     1  UNL11      -0.0277
     62 H          -2.8756    2.1476   -9.3109 H       1  UNL11       0.0313
     63 H          -3.4084    0.6562  -10.0709 H       1  UNL11       0.0313
     64 C          -3.0850   -7.2224    9.9360 C.3     1  UNL11      -0.0277
     65 H          -2.0652   -7.0786    9.5707 H       1  UNL11       0.0313
     66 H          -3.3193   -6.3552   10.5591 H       1  UNL11       0.0313
     67 C          -4.4962    2.4099  -10.7289 C.3     1  UNL11      -0.0491
     68 H          -4.7932    3.3784  -10.3189 H       1  UNL11       0.0268
     69 H          -5.4070    1.8752  -11.0066 H       1  UNL11       0.0268
     70 C          -3.6122    2.6287  -11.9768 C.3     1  UNL11      -0.0528
     71 H          -2.6617    3.0706  -11.6669 H       1  UNL11       0.0265
     72 H          -3.3833    1.6666  -12.4422 H       1  UNL11       0.0265
     73 C          -4.2701    3.5675  -13.0147 C.3     1  UNL11      -0.0533
     74 H          -3.5490    3.7575  -13.8137 H       1  UNL11       0.0265
     75 H          -4.4919    4.5305  -12.5475 H       1  UNL11       0.0265
     76 C          -5.5591    2.9773  -13.6311 C.3     1  UNL11      -0.0559
     77 H          -5.3467    1.9969  -14.0645 H       1  UNL11       0.0263
     78 H          -6.3192    2.8407  -12.8592 H       1  UNL11       0.0263
     79 C          -3.1263   -8.4843   10.8287 C.3     1  UNL11      -0.0491
     80 H          -4.1515   -8.6670   11.1606 H       1  UNL11       0.0268
     81 H          -2.7984   -9.3538   10.2552 H       1  UNL11       0.0268
     82 C          -2.2025   -8.3284   12.0560 C.3     1  UNL11      -0.0528
     83 H          -2.5420   -7.4875   12.6663 H       1  UNL11       0.0265
     84 H          -1.1872   -8.1034   11.7192 H       1  UNL11       0.0265
     85 C          -2.1830   -9.6134   12.9110 C.3     1  UNL11      -0.0533
     86 H          -3.1936   -9.8318   13.2658 H       1  UNL11       0.0265
     87 H          -1.8598  -10.4563   12.2946 H       1  UNL11       0.0265
     88 C          -1.2315   -9.4679   14.1174 C.3     1  UNL11      -0.0559
     89 H          -0.2209   -9.2460   13.7653 H       1  UNL11       0.0263
     90 H          -1.5538   -8.6319   14.7431 H       1  UNL11       0.0263
     91 C          -6.1314    3.9014  -14.7210 C.3     1  UNL11      -0.0653
     92 H          -5.4139    4.0306  -15.5345 H       1  UNL11       0.0230
     93 H          -7.0470    3.4734  -15.1352 H       1  UNL11       0.0230
     94 H          -6.3695    4.8839  -14.3066 H       1  UNL11       0.0230
     95 C          -1.1996  -10.7531   14.9649 C.3     1  UNL11      -0.0653
     96 H          -0.8535  -11.6004   14.3682 H       1  UNL11       0.0230
     97 H          -0.5205  -10.6305   15.8116 H       1  UNL11       0.0230
     98 H          -2.1942  -10.9842   15.3534 H       1  UNL11       0.0230
@<TRIPOS>BOND
     1     1     2   ar
     2     1     6    1
     3     1    47   ar
     4     2     3   ar
     5     2     7    1
     6     3     4   ar
     7     3    18    1
     8     4     5   ar
     9     4     8    1
    10     5     9    1
    11     5    47   ar
    12    10    11   ar
    13    10    15   ar
    14    10    16    1
    15    11    12   ar
    16    11    31    1
    17    12    13   ar
    18    12    20    1
    19    13    14   ar
    20    13    17    1
    21    14    15   ar
    22    14    19    1
    23    15    32    1
    24    18    19    2
    25    20    30    2
    26    21    25   ar
    27    21    26    1
    28    21    33   ar
    29    22    23   ar
    30    22    27    1
    31    22    33   ar
    32    23    24   ar
    33    23    28    1
    34    24    25   ar
    35    24    30    1
    36    25    29    1
    37    33    34    1
    38    34    35    1
    39    35    36    2
    40    35    37    1
    41    37    38   ar
    42    37    39   ar
    43    38    40   ar
    44    38    41    1
    45    39    42   ar
    46    39    43    1
    47    40    44   ar
    48    40    45    1
    49    42    44   ar
    50    42    46    1
    51    44    61    1
    52    47    48    1
    53    48    49    1
    54    49    50    2
    55    49    51    1
    56    51    52   ar
    57    51    53   ar
    58    52    54   ar
    59    52    55    1
    60    53    56   ar
    61    53    57    1
    62    54    58   ar
    63    54    59    1
    64    56    58   ar
    65    56    60    1
    66    58    64    1
    67    61    62    1
    68    61    63    1
    69    61    67    1
    70    64    65    1
    71    64    66    1
    72    64    79    1
    73    67    68    1
    74    67    69    1
    75    67    70    1
    76    70    71    1
    77    70    72    1
    78    70    73    1
    79    73    74    1
    80    73    75    1
    81    73    76    1
    82    76    77    1
    83    76    78    1
    84    76    91    1
    85    79    80    1
    86    79    81    1
    87    79    82    1
    88    82    83    1
    89    82    84    1
    90    82    85    1
    91    85    86    1
    92    85    87    1
    93    85    88    1
    94    88    89    1
    95    88    90    1
    96    88    95    1
    97    91    92    1
    98    91    93    1
    99    91    94    1
   100    95    96    1
   101    95    97    1
   102    95    98    1
