@<TRIPOS>MOLECULE
*****
 122 126 0 0 0
SMALL
GASTEIGER

@<TRIPOS>ATOM
      1 C          -8.2707   -5.5784    3.1538 C.ar    1  UNL11      -0.0172
      2 C          -8.9034   -5.3345    1.9359 C.ar    1  UNL11      -0.0311
      3 C          -8.2533   -5.6391    0.7380 C.ar    1  UNL11       0.0864
      4 C          -6.9835   -6.2169    0.7663 C.ar    1  UNL11      -0.0311
      5 C          -6.3479   -6.4508    1.9828 C.ar    1  UNL11      -0.0172
      6 H          -8.7730   -5.3253    4.0842 H       1  UNL11       0.0655
      7 H          -9.8989   -4.8964    1.9239 H       1  UNL11       0.0640
      8 H          -6.4763   -6.4698   -0.1618 H       1  UNL11       0.0640
      9 H          -5.3442   -6.8670    1.9855 H       1  UNL11       0.0655
     10 C          -6.3956   -1.7652    0.3158 C.ar    1  UNL11      -0.0392
     11 C          -7.3097   -0.9531    0.9824 C.ar    1  UNL11      -0.0330
     12 C          -8.6734   -1.2465    0.9266 C.ar    1  UNL11       0.0883
     13 C          -9.1111   -2.3894    0.2564 C.ar    1  UNL11      -0.0059
     14 C          -8.1952   -3.2218   -0.3907 C.ar    1  UNL11       0.1065
     15 C          -6.8339   -2.8866   -0.3870 C.ar    1  UNL11       0.0682
     16 H          -5.3385   -1.5114    0.3306 H       1  UNL11       0.0633
     17 H         -10.1738   -2.6221    0.2210 H       1  UNL11       0.0662
     18 N          -8.8310   -5.3955   -0.4163 N.2     1  UNL11      -0.1493
     19 N          -8.6427   -4.2812   -1.0289 N.2     1  UNL11      -0.1478
     20 N          -9.5507   -0.4334    1.4724 N.2     1  UNL11      -0.1492
     21 C          -9.3716    0.5907   -2.7449 C.ar    1  UNL11      -0.0172
     22 C          -7.8501    2.0965   -1.6235 C.ar    1  UNL11      -0.0172
     23 C          -8.4674    1.8157   -0.4071 C.ar    1  UNL11      -0.0311
     24 C          -9.5197    0.8996   -0.3532 C.ar    1  UNL11       0.0864
     25 C          -9.9913    0.3105   -1.5289 C.ar    1  UNL11      -0.0311
     26 H          -9.7232    0.1083   -3.6536 H       1  UNL11       0.0655
     27 H          -7.0106    2.7864   -1.6592 H       1  UNL11       0.0655
     28 H          -8.1033    2.2868    0.5032 H       1  UNL11       0.0640
     29 H         -10.8187   -0.3946   -1.4956 H       1  UNL11       0.0640
     30 N         -10.0297    0.5606    0.8099 N.2     1  UNL11      -0.1493
     31 H          -6.9605   -0.0688    1.5107 H       1  UNL11       0.0640
     32 CL         -5.6605   -3.8254   -1.2521 Cl      1  UNL11      -0.0813
     33 C          -8.2830    1.4644   -2.7872 C.ar    1  UNL11       0.1321
     34 O          -7.6033    1.7035   -3.9641 O.3     1  UNL11      -0.4223
     35 C          -7.0511    0.7384   -4.7370 C.2     1  UNL11       0.3444
     36 O          -7.1269   -0.4433   -4.4566 O.2     1  UNL11      -0.2445
     37 C          -6.2617    1.2262   -5.9187 C.ar    1  UNL11       0.0594
     38 C          -6.1462    2.5917   -6.2014 C.ar    1  UNL11      -0.0475
     39 C          -5.6092    0.3078   -6.7472 C.ar    1  UNL11      -0.0475
     40 C          -5.3829    3.0281   -7.2832 C.ar    1  UNL11      -0.0578
     41 H          -6.6484    3.3287   -5.5797 H       1  UNL11       0.0626
     42 C          -4.8462    0.7447   -7.8282 C.ar    1  UNL11      -0.0578
     43 H          -5.6892   -0.7589   -6.5523 H       1  UNL11       0.0626
     44 C          -4.7212    2.1077   -8.0966 C.ar    1  UNL11      -0.0473
     45 H          -5.3057    4.0933   -7.4892 H       1  UNL11       0.0620
     46 H          -4.3468    0.0155   -8.4619 H       1  UNL11       0.0620
     47 C          -6.9956   -6.1423    3.1823 C.ar    1  UNL11       0.1321
     48 O          -6.3768   -6.3163    4.4067 O.3     1  UNL11      -0.4223
     49 C          -5.5873   -7.3548    4.7718 C.2     1  UNL11       0.3444
     50 O          -5.4400   -8.3448    4.0805 O.2     1  UNL11      -0.2445
     51 C          -4.8980   -7.2017    6.0985 C.ar    1  UNL11       0.0594
     52 C          -5.1001   -6.0693    6.8947 C.ar    1  UNL11      -0.0475
     53 C          -4.0262   -8.1964    6.5510 C.ar    1  UNL11      -0.0475
     54 C          -4.4493   -5.9395    8.1203 C.ar    1  UNL11      -0.0578
     55 H          -5.7733   -5.2793    6.5711 H       1  UNL11       0.0626
     56 C          -3.3639   -8.0592    7.7691 C.ar    1  UNL11      -0.0578
     57 H          -3.8489   -9.0846    5.9493 H       1  UNL11       0.0626
     58 C          -3.5763   -6.9329    8.5664 C.ar    1  UNL11      -0.0473
     59 H          -4.6284   -5.0552    8.7275 H       1  UNL11       0.0620
     60 H          -2.6847   -8.8423    8.0969 H       1  UNL11       0.0620
     61 C          -3.8790    2.5825   -9.2696 C.3     1  UNL11      -0.0277
     62 H          -3.4630    3.5682   -9.0456 H       1  UNL11       0.0313
     63 H          -3.0307    1.9061   -9.4031 H       1  UNL11       0.0313
     64 C          -2.8734   -6.7923    9.9117 C.3     1  UNL11      -0.0277
     65 H          -1.7944   -6.7560    9.7431 H       1  UNL11       0.0313
     66 H          -3.1470   -5.8442   10.3815 H       1  UNL11       0.0313
     67 C          -4.6899    2.6529  -10.5790 C.3     1  UNL11      -0.0491
     68 H          -5.5233    3.3488  -10.4534 H       1  UNL11       0.0268
     69 H          -5.1113    1.6687  -10.7995 H       1  UNL11       0.0268
     70 C          -3.8025    3.1109  -11.7556 C.3     1  UNL11      -0.0528
     71 H          -3.3757    4.0916  -11.5298 H       1  UNL11       0.0265
     72 H          -2.9725    2.4103  -11.8789 H       1  UNL11       0.0265
     73 C          -4.6056    3.1913  -13.0706 C.3     1  UNL11      -0.0530
     74 H          -5.4301    3.8991  -12.9519 H       1  UNL11       0.0265
     75 H          -5.0386    2.2130  -13.2950 H       1  UNL11       0.0265
     76 C          -3.7061    3.6379  -14.2425 C.3     1  UNL11      -0.0531
     77 H          -3.2660    4.6118  -14.0129 H       1  UNL11       0.0265
     78 H          -2.8860    2.9254  -14.3640 H       1  UNL11       0.0265
     79 C          -3.1863   -7.9463   10.8900 C.3     1  UNL11      -0.0491
     80 H          -2.8275   -8.8803   10.4551 H       1  UNL11       0.0268
     81 H          -2.6293   -7.7899   11.8170 H       1  UNL11       0.0268
     82 C          -4.6971   -8.0456   11.2118 C.3     1  UNL11      -0.0528
     83 H          -5.2776   -8.1339   10.2915 H       1  UNL11       0.0265
     84 H          -5.0168   -7.1162   11.6896 H       1  UNL11       0.0265
     85 C          -5.0435   -9.2261   12.1528 C.3     1  UNL11      -0.0530
     86 H          -4.5494   -9.0708   13.1151 H       1  UNL11       0.0265
     87 H          -6.1188   -9.2101   12.3470 H       1  UNL11       0.0265
     88 C          -4.6553  -10.6273   11.6151 C.3     1  UNL11      -0.0531
     89 H          -3.5683  -10.7185   11.5622 H       1  UNL11       0.0265
     90 H          -4.9936  -11.3751   12.3368 H       1  UNL11       0.0265
     91 C          -4.5042    3.7320  -15.5598 C.3     1  UNL11      -0.0531
     92 H          -5.3189    4.4508  -15.4405 H       1  UNL11       0.0265
     93 H          -4.9491    2.7587  -15.7780 H       1  UNL11       0.0265
     94 C          -5.2738  -10.9472   10.2345 C.3     1  UNL11      -0.0531
     95 H          -4.9045  -10.2410    9.4879 H       1  UNL11       0.0265
     96 H          -6.3604  -10.8400   10.2853 H       1  UNL11       0.0265
     97 C          -3.5942    4.1713  -16.7294 C.3     1  UNL11      -0.0531
     98 H          -3.1018    5.1093  -16.4606 H       1  UNL11       0.0265
     99 H          -2.8067    3.4297  -16.8863 H       1  UNL11       0.0265
    100 C          -4.9148  -12.3769    9.7797 C.3     1  UNL11      -0.0531
    101 H          -3.8276  -12.4890    9.7574 H       1  UNL11       0.0265
    102 H          -5.3075  -13.0999   10.4992 H       1  UNL11       0.0265
    103 C          -4.3708    4.3926  -18.0477 C.3     1  UNL11      -0.0533
    104 H          -3.6924    4.8497  -18.7726 H       1  UNL11       0.0265
    105 H          -5.1858    5.1016  -17.8804 H       1  UNL11       0.0265
    106 C          -5.4891  -12.6758    8.3788 C.3     1  UNL11      -0.0533
    107 H          -5.1026  -11.9456    7.6628 H       1  UNL11       0.0265
    108 H          -6.5771  -12.5728    8.4008 H       1  UNL11       0.0265
    109 C          -4.9293    3.0814  -18.6453 C.3     1  UNL11      -0.0559
    110 H          -5.6655    2.6416  -17.9693 H       1  UNL11       0.0263
    111 H          -4.1198    2.3579  -18.7700 H       1  UNL11       0.0263
    112 C          -5.1149  -14.0985    7.9129 C.3     1  UNL11      -0.0559
    113 H          -4.0275  -14.2052    7.8904 H       1  UNL11       0.0263
    114 H          -5.5040  -14.8334    8.6220 H       1  UNL11       0.0263
    115 C          -5.5972    3.3319  -20.0099 C.3     1  UNL11      -0.0653
    116 H          -4.8775    3.7403  -20.7232 H       1  UNL11       0.0230
    117 H          -5.9891    2.3966  -20.4160 H       1  UNL11       0.0230
    118 H          -6.4262    4.0364  -19.9098 H       1  UNL11       0.0230
    119 C          -5.6813  -14.3958    6.5123 C.3     1  UNL11      -0.0653
    120 H          -5.2859  -13.6897    5.7783 H       1  UNL11       0.0230
    121 H          -5.4056  -15.4055    6.1999 H       1  UNL11       0.0230
    122 H          -6.7714  -14.3226    6.5135 H       1  UNL11       0.0230
@<TRIPOS>BOND
     1     1     2   ar
     2     1     6    1
     3     1    47   ar
     4     2     3   ar
     5     2     7    1
     6     3     4   ar
     7     3    18    1
     8     4     5   ar
     9     4     8    1
    10     5     9    1
    11     5    47   ar
    12    10    11   ar
    13    10    15   ar
    14    10    16    1
    15    11    12   ar
    16    11    31    1
    17    12    13   ar
    18    12    20    1
    19    13    14   ar
    20    13    17    1
    21    14    15   ar
    22    14    19    1
    23    15    32    1
    24    18    19    2
    25    20    30    2
    26    21    25   ar
    27    21    26    1
    28    21    33   ar
    29    22    23   ar
    30    22    27    1
    31    22    33   ar
    32    23    24   ar
    33    23    28    1
    34    24    25   ar
    35    24    30    1
    36    25    29    1
    37    33    34    1
    38    34    35    1
    39    35    36    2
    40    35    37    1
    41    37    38   ar
    42    37    39   ar
    43    38    40   ar
    44    38    41    1
    45    39    42   ar
    46    39    43    1
    47    40    44   ar
    48    40    45    1
    49    42    44   ar
    50    42    46    1
    51    44    61    1
    52    47    48    1
    53    48    49    1
    54    49    50    2
    55    49    51    1
    56    51    52   ar
    57    51    53   ar
    58    52    54   ar
    59    52    55    1
    60    53    56   ar
    61    53    57    1
    62    54    58   ar
    63    54    59    1
    64    56    58   ar
    65    56    60    1
    66    58    64    1
    67    61    62    1
    68    61    63    1
    69    61    67    1
    70    64    65    1
    71    64    66    1
    72    64    79    1
    73    67    68    1
    74    67    69    1
    75    67    70    1
    76    70    71    1
    77    70    72    1
    78    70    73    1
    79    73    74    1
    80    73    75    1
    81    73    76    1
    82    76    77    1
    83    76    78    1
    84    76    91    1
    85    79    80    1
    86    79    81    1
    87    79    82    1
    88    82    83    1
    89    82    84    1
    90    82    85    1
    91    85    86    1
    92    85    87    1
    93    85    88    1
    94    88    89    1
    95    88    90    1
    96    88    94    1
    97    91    92    1
    98    91    93    1
    99    91    97    1
   100    94    95    1
   101    94    96    1
   102    94   100    1
   103    97    98    1
   104    97    99    1
   105    97   103    1
   106   100   101    1
   107   100   102    1
   108   100   106    1
   109   103   104    1
   110   103   105    1
   111   103   109    1
   112   106   107    1
   113   106   108    1
   114   106   112    1
   115   109   110    1
   116   109   111    1
   117   109   115    1
   118   112   113    1
   119   112   114    1
   120   112   119    1
   121   115   116    1
   122   115   117    1
   123   115   118    1
   124   119   120    1
   125   119   121    1
   126   119   122    1
