@<TRIPOS>MOLECULE
*****
 134 138 0 0 0
SMALL
GASTEIGER

@<TRIPOS>ATOM
      1 C          -8.5491   -4.6096    3.5211 C.ar    1  UNL1       -0.0172
      2 C          -9.3348   -4.2941    2.4162 C.ar    1  UNL1       -0.0311
      3 C          -9.0706   -4.8909    1.1807 C.ar    1  UNL1        0.0864
      4 C          -8.0292   -5.8127    1.0595 C.ar    1  UNL1       -0.0311
      5 C          -7.2435   -6.1264    2.1635 C.ar    1  UNL1       -0.0172
      6 H          -8.7567   -4.1497    4.4840 H       1  UNL1        0.0655
      7 H         -10.1466   -3.5781    2.5215 H       1  UNL1        0.0640
      8 H          -7.8206   -6.2828    0.1014 H       1  UNL1        0.0640
      9 H          -6.4313   -6.8416    2.0621 H       1  UNL1        0.0655
     10 C          -6.8714   -1.2778    0.2981 C.ar    1  UNL1       -0.0392
     11 C          -7.6545   -0.2654    0.8498 C.ar    1  UNL1       -0.0330
     12 C          -9.0467   -0.3792    0.8508 C.ar    1  UNL1        0.0883
     13 C          -9.6445   -1.5395    0.3544 C.ar    1  UNL1       -0.0059
     14 C          -8.8623   -2.5678   -0.1782 C.ar    1  UNL1        0.1065
     15 C          -7.4694   -2.4194   -0.2334 C.ar    1  UNL1        0.0682
     16 H          -5.7897   -1.1695    0.2708 H       1  UNL1        0.0633
     17 H         -10.7284   -1.6384    0.3704 H       1  UNL1        0.0662
     18 N          -9.7993   -4.5984    0.1277 N.2     1  UNL1       -0.1493
     19 N          -9.4607   -3.6372   -0.6544 N.2     1  UNL1       -0.1478
     20 N          -9.7993    0.6024    1.3058 N.2     1  UNL1       -0.1492
     21 C          -9.6289    0.9512   -2.9784 C.ar    1  UNL1       -0.0172
     22 C          -7.8240    2.2518   -2.0369 C.ar    1  UNL1       -0.0172
     23 C          -8.5357    2.4097   -0.8639 C.ar    1  UNL1       -0.0311
     24 C          -9.7075    1.6742   -0.6755 C.ar    1  UNL1        0.0864
     25 C         -10.2783    0.9811   -1.7460 C.ar    1  UNL1       -0.0311
     26 H         -10.0889    0.4231   -3.8103 H       1  UNL1        0.0655
     27 H          -6.8644    2.7488   -2.1528 H       1  UNL1        0.0655
     28 H          -8.0910    2.9570   -0.0360 H       1  UNL1        0.0640
     29 H         -11.2075    0.4317   -1.6123 H       1  UNL1        0.0640
     30 N         -10.2063    1.5497    0.5335 N.2     1  UNL1       -0.1493
     31 H          -7.1766    0.6269    1.2474 H       1  UNL1        0.0640
     32 CL         -6.4508   -3.6220   -0.9574 Cl      1  UNL1       -0.0813
     33 C          -8.3735    1.5535   -3.1085 C.ar    1  UNL1        0.1321
     34 O          -7.6496    1.5319   -4.2806 O.3     1  UNL1       -0.4223
     35 C          -7.4547    0.4760   -5.0998 C.2     1  UNL1        0.3444
     36 O          -7.9928   -0.6017   -4.9324 O.2     1  UNL1       -0.2445
     37 C          -6.4266    0.7037   -6.1697 C.ar    1  UNL1        0.0594
     38 C          -5.7697    1.9352   -6.2915 C.ar    1  UNL1       -0.0475
     39 C          -6.0913   -0.3316   -7.0466 C.ar    1  UNL1       -0.0475
     40 C          -4.7968    2.1224   -7.2706 C.ar    1  UNL1       -0.0578
     41 H          -6.0058    2.7599   -5.6236 H       1  UNL1        0.0626
     42 C          -5.1261   -0.1399   -8.0289 C.ar    1  UNL1       -0.0578
     43 H          -6.5809   -1.2980   -6.9774 H       1  UNL1        0.0626
     44 C          -4.4821    1.0897   -8.1516 C.ar    1  UNL1       -0.0473
     45 H          -4.2880    3.0807   -7.3584 H       1  UNL1        0.0620
     46 H          -4.8809   -0.9492   -8.7101 H       1  UNL1        0.0620
     47 C          -7.5190   -5.5378    3.3982 C.ar    1  UNL1        0.1321
     48 O          -6.7917   -5.8556    4.5314 O.3     1  UNL1       -0.4223
     49 C          -6.5204   -7.1065    4.9801 C.2     1  UNL1        0.3444
     50 O          -6.8961   -8.1063    4.3978 O.2     1  UNL1       -0.2445
     51 C          -5.7545   -7.1772    6.2744 C.ar    1  UNL1        0.0594
     52 C          -5.3683   -6.0136    6.9461 C.ar    1  UNL1       -0.0475
     53 C          -5.4097   -8.4154    6.8287 C.ar    1  UNL1       -0.0475
     54 C          -4.6491   -6.0904    8.1374 C.ar    1  UNL1       -0.0578
     55 H          -5.6161   -5.0351    6.5428 H       1  UNL1        0.0626
     56 C          -4.6770   -8.4899    8.0159 C.ar    1  UNL1       -0.0578
     57 H          -5.6982   -9.3359    6.3266 H       1  UNL1        0.0626
     58 C          -4.2979   -7.3230    8.6869 C.ar    1  UNL1       -0.0473
     59 H          -4.3322   -5.1808    8.6389 H       1  UNL1        0.0620
     60 H          -4.4138   -9.4687    8.4066 H       1  UNL1        0.0620
     61 C          -3.4749    1.3204   -9.2708 C.3     1  UNL1       -0.0277
     62 H          -2.5028    1.5597   -8.8328 H       1  UNL1        0.0313
     63 H          -3.3401    0.4039   -9.8505 H       1  UNL1        0.0313
     64 C          -3.4647   -7.3252    9.9705 C.3     1  UNL1       -0.0277
     65 H          -2.4414   -7.0460    9.7084 H       1  UNL1        0.0313
     66 H          -3.8437   -6.5342   10.6231 H       1  UNL1        0.0313
     67 C          -3.8920    2.4628  -10.2243 C.3     1  UNL1       -0.0491
     68 H          -3.1415    2.5640  -11.0118 H       1  UNL1        0.0268
     69 H          -3.8969    3.3991   -9.6643 H       1  UNL1        0.0268
     70 C          -5.2799    2.2141  -10.8650 C.3     1  UNL1       -0.0528
     71 H          -5.2383    1.2892  -11.4454 H       1  UNL1        0.0265
     72 H          -6.0358    2.0580  -10.0930 H       1  UNL1        0.0265
     73 C          -5.7333    3.3625  -11.7998 C.3     1  UNL1       -0.0530
     74 H          -6.6941    3.0890  -12.2432 H       1  UNL1        0.0265
     75 H          -5.0219    3.4498  -12.6243 H       1  UNL1        0.0265
     76 C          -5.8760    4.7461  -11.1140 C.3     1  UNL1       -0.0531
     77 H          -4.9051    5.0905  -10.7527 H       1  UNL1        0.0265
     78 H          -6.1990    5.4671  -11.8691 H       1  UNL1        0.0265
     79 C          -3.4239   -8.6401   10.7881 C.3     1  UNL1       -0.0491
     80 H          -4.4405   -8.9382   11.0570 H       1  UNL1        0.0268
     81 H          -2.9872   -9.4379   10.1830 H       1  UNL1        0.0268
     82 C          -2.5753   -8.4583   12.0715 C.3     1  UNL1       -0.0528
     83 H          -3.0151   -7.6700   12.6880 H       1  UNL1        0.0265
     84 H          -1.5699   -8.1318   11.7932 H       1  UNL1        0.0265
     85 C          -2.4731   -9.7593   12.9020 C.3     1  UNL1       -0.0530
     86 H          -3.4748  -10.0800   13.1989 H       1  UNL1        0.0265
     87 H          -2.0425  -10.5514   12.2841 H       1  UNL1        0.0265
     88 C          -1.5996   -9.5603   14.1652 C.3     1  UNL1       -0.0531
     89 H          -0.6018   -9.2261   13.8688 H       1  UNL1        0.0265
     90 H          -2.0366   -8.7750   14.7874 H       1  UNL1        0.0265
     91 C          -6.9007    4.7477   -9.9567 C.3     1  UNL1       -0.0531
     92 H          -6.5859    4.0550   -9.1735 H       1  UNL1        0.0265
     93 H          -7.8608    4.4012  -10.3439 H       1  UNL1        0.0265
     94 C          -1.4777  -10.8627   14.9919 C.3     1  UNL1       -0.0531
     95 H          -1.0146  -11.6391   14.3776 H       1  UNL1        0.0265
     96 H          -2.4762  -11.2122   15.2660 H       1  UNL1        0.0265
     97 C          -7.0536    6.1571   -9.3387 C.3     1  UNL1       -0.0531
     98 H          -6.0702    6.5104   -9.0176 H       1  UNL1        0.0265
     99 H          -7.4149    6.8577  -10.0956 H       1  UNL1        0.0265
    100 C          -0.6384  -10.6553   16.2757 C.3     1  UNL1       -0.0531
    101 H           0.3635  -10.3124   16.0045 H       1  UNL1        0.0265
    102 H          -1.0980   -9.8755   16.8884 H       1  UNL1        0.0265
    103 C          -8.0003    6.1796   -8.1144 C.3     1  UNL1       -0.0531
    104 H          -7.9901    7.1860   -7.6877 H       1  UNL1        0.0265
    105 H          -7.6204    5.5015   -7.3459 H       1  UNL1        0.0265
    106 C          -0.5285  -11.9587   17.1021 C.3     1  UNL1       -0.0531
    107 H          -0.0560  -12.7342   16.4938 H       1  UNL1        0.0265
    108 H          -1.5301  -12.3101   17.3629 H       1  UNL1        0.0265
    109 C          -9.4555    5.8010   -8.4732 C.3     1  UNL1       -0.0531
    110 H          -9.4885    4.7816   -8.8623 H       1  UNL1        0.0265
    111 H          -9.8239    6.4679   -9.2570 H       1  UNL1        0.0265
    112 C           0.2927  -11.7508   18.3961 C.3     1  UNL1       -0.0531
    113 H           1.2878  -11.3783   18.1400 H       1  UNL1        0.0265
    114 H          -0.1924  -10.9937   19.0177 H       1  UNL1        0.0265
    115 C         -10.3868    5.8845   -7.2462 C.3     1  UNL1       -0.0533
    116 H         -10.4075    6.9098   -6.8681 H       1  UNL1        0.0265
    117 H          -9.9990    5.2443   -6.4493 H       1  UNL1        0.0265
    118 C           0.4296  -13.0642   19.2006 C.3     1  UNL1       -0.0533
    119 H           0.9071  -13.8245   18.5771 H       1  UNL1        0.0265
    120 H          -0.5634  -13.4342   19.4688 H       1  UNL1        0.0265
    121 C         -11.8166    5.4344   -7.6152 C.3     1  UNL1       -0.0559
    122 H         -11.7935    4.4044   -7.9802 H       1  UNL1        0.0263
    123 H         -12.2042    6.0605   -8.4227 H       1  UNL1        0.0263
    124 C           1.2651  -12.8586   20.4839 C.3     1  UNL1       -0.0559
    125 H           2.2595  -12.4898   20.2205 H       1  UNL1        0.0263
    126 H           0.7915  -12.1043   21.1172 H       1  UNL1        0.0263
    127 C         -12.7677    5.5191   -6.4080 C.3     1  UNL1       -0.0653
    128 H         -12.8607    6.5512   -6.0623 H       1  UNL1        0.0230
    129 H         -13.7610    5.1595   -6.6861 H       1  UNL1        0.0230
    130 H         -12.3999    4.9057   -5.5821 H       1  UNL1        0.0230
    131 C           1.4101  -14.1685   21.2826 C.3     1  UNL1       -0.0653
    132 H           1.8800  -14.9442   20.6733 H       1  UNL1        0.0230
    133 H           2.0318  -14.0058   22.1662 H       1  UNL1        0.0230
    134 H           0.4339  -14.5302   21.6138 H       1  UNL1        0.0230
@<TRIPOS>BOND
     1     1     2   ar
     2     1     6    1
     3     1    47   ar
     4     2     3   ar
     5     2     7    1
     6     3     4   ar
     7     3    18    1
     8     4     5   ar
     9     4     8    1
    10     5     9    1
    11     5    47   ar
    12    10    11   ar
    13    10    15   ar
    14    10    16    1
    15    11    12   ar
    16    11    31    1
    17    12    13   ar
    18    12    20    1
    19    13    14   ar
    20    13    17    1
    21    14    15   ar
    22    14    19    1
    23    15    32    1
    24    18    19    2
    25    20    30    2
    26    21    25   ar
    27    21    26    1
    28    21    33   ar
    29    22    23   ar
    30    22    27    1
    31    22    33   ar
    32    23    24   ar
    33    23    28    1
    34    24    25   ar
    35    24    30    1
    36    25    29    1
    37    33    34    1
    38    34    35    1
    39    35    36    2
    40    35    37    1
    41    37    38   ar
    42    37    39   ar
    43    38    40   ar
    44    38    41    1
    45    39    42   ar
    46    39    43    1
    47    40    44   ar
    48    40    45    1
    49    42    44   ar
    50    42    46    1
    51    44    61    1
    52    47    48    1
    53    48    49    1
    54    49    50    2
    55    49    51    1
    56    51    52   ar
    57    51    53   ar
    58    52    54   ar
    59    52    55    1
    60    53    56   ar
    61    53    57    1
    62    54    58   ar
    63    54    59    1
    64    56    58   ar
    65    56    60    1
    66    58    64    1
    67    61    62    1
    68    61    63    1
    69    61    67    1
    70    64    65    1
    71    64    66    1
    72    64    79    1
    73    67    68    1
    74    67    69    1
    75    67    70    1
    76    70    71    1
    77    70    72    1
    78    70    73    1
    79    73    74    1
    80    73    75    1
    81    73    76    1
    82    76    77    1
    83    76    78    1
    84    76    91    1
    85    79    80    1
    86    79    81    1
    87    79    82    1
    88    82    83    1
    89    82    84    1
    90    82    85    1
    91    85    86    1
    92    85    87    1
    93    85    88    1
    94    88    89    1
    95    88    90    1
    96    88    94    1
    97    91    92    1
    98    91    93    1
    99    91    97    1
   100    94    95    1
   101    94    96    1
   102    94   100    1
   103    97    98    1
   104    97    99    1
   105    97   103    1
   106   100   101    1
   107   100   102    1
   108   100   106    1
   109   103   104    1
   110   103   105    1
   111   103   109    1
   112   106   107    1
   113   106   108    1
   114   106   112    1
   115   109   110    1
   116   109   111    1
   117   109   115    1
   118   112   113    1
   119   112   114    1
   120   112   118    1
   121   115   116    1
   122   115   117    1
   123   115   121    1
   124   118   119    1
   125   118   120    1
   126   118   124    1
   127   121   122    1
   128   121   123    1
   129   121   127    1
   130   124   125    1
   131   124   126    1
   132   124   131    1
   133   127   128    1
   134   127   129    1
   135   127   130    1
   136   131   132    1
   137   131   133    1
   138   131   134    1
