@<TRIPOS>MOLECULE
*****
 62 66 0 0 0
SMALL
GASTEIGER

@<TRIPOS>ATOM
      1 C          -2.7523    2.7653    0.6381 C.ar    1  UNL1        0.1355
      2 C          -1.8870    2.3094   -0.3556 C.ar    1  UNL1        0.0247
      3 C          -0.7118    3.0069   -0.6324 C.ar    1  UNL1        0.1537
      4 C          -0.3901    4.1534    0.0997 C.ar    1  UNL1        0.0835
      5 C          -1.2492    4.6007    1.1023 C.ar    1  UNL1       -0.0363
      6 C          -2.4268    3.9070    1.3745 C.ar    1  UNL1       -0.0176
      7 H          -0.9996    5.4885    1.6780 H       1  UNL1        0.0634
      8 H          -3.0852    4.2561    2.1662 H       1  UNL1        0.0655
      9 C           2.1113    1.5319   -3.3225 C.ar    1  UNL1       -0.0206
     10 C           3.1309    1.0641   -4.1524 C.ar    1  UNL1        0.0869
     11 C           3.2413    1.5433   -5.4584 C.ar    1  UNL1       -0.0345
     12 C           2.3489    2.5064   -5.9217 C.ar    1  UNL1       -0.0589
     13 C           1.3463    2.9906   -5.0834 C.ar    1  UNL1       -0.0476
     14 C           1.2198    2.5098   -3.7761 C.ar    1  UNL1        0.0615
     15 H           2.0294    1.1406   -2.3111 H       1  UNL1        0.0647
     16 H           4.0268    1.1733   -6.1138 H       1  UNL1        0.0639
     17 H           2.4383    2.8853   -6.9368 H       1  UNL1        0.0618
     18 H           0.6632    3.7502   -5.4562 H       1  UNL1        0.0626
     19 C          -6.9193   -0.6877    1.9257 C.ar    1  UNL1        0.0869
     20 C          -5.9114    0.2241    1.6086 C.ar    1  UNL1       -0.0206
     21 C          -6.2165    1.5724    1.3918 C.ar    1  UNL1        0.0615
     22 C          -7.5438    1.9964    1.5158 C.ar    1  UNL1       -0.0476
     23 C          -8.5485    1.0906    1.8508 C.ar    1  UNL1       -0.0589
     24 C          -8.2378   -0.2503    2.0598 C.ar    1  UNL1       -0.0345
     25 H          -4.8860   -0.1280    1.5235 H       1  UNL1        0.0647
     26 H          -7.8032    3.0398    1.3529 H       1  UNL1        0.0626
     27 H          -9.5764    1.4309    1.9484 H       1  UNL1        0.0618
     28 H          -9.0254   -0.9541    2.3204 H       1  UNL1        0.0639
     29 CL          1.0773    5.0228   -0.2076 Cl      1  UNL1       -0.0797
     30 C           6.3170    2.4444   -3.8135 C.ar    1  UNL1       -0.0345
     31 C           6.6205    3.7763   -3.5356 C.ar    1  UNL1       -0.0597
     32 C           6.0480    4.4077   -2.4327 C.ar    1  UNL1       -0.0616
     33 C           5.1737    3.7064   -1.6045 C.ar    1  UNL1       -0.0597
     34 C           4.8711    2.3740   -1.8790 C.ar    1  UNL1       -0.0345
     35 C           5.4400    1.7389   -2.9878 C.ar    1  UNL1        0.0862
     36 H           6.7612    1.9596   -4.6801 H       1  UNL1        0.0639
     37 H           7.3025    4.3235   -4.1816 H       1  UNL1        0.0618
     38 H           4.7269    4.1981   -0.7438 H       1  UNL1        0.0618
     39 H           4.1900    1.8326   -1.2262 H       1  UNL1        0.0639
     40 C          -8.6901   -2.3590   -1.8367 C.ar    1  UNL1       -0.0597
     41 C          -8.3860   -2.7232   -0.5260 C.ar    1  UNL1       -0.0345
     42 C          -7.1016   -2.5139   -0.0208 C.ar    1  UNL1        0.0862
     43 C          -6.1212   -1.9408   -0.8372 C.ar    1  UNL1       -0.0345
     44 C          -6.4277   -1.5766   -2.1471 C.ar    1  UNL1       -0.0597
     45 C          -7.7120   -1.7848   -2.6467 C.ar    1  UNL1       -0.0616
     46 H          -9.6918   -2.5219   -2.2267 H       1  UNL1        0.0618
     47 H          -9.1555   -3.1657    0.1029 H       1  UNL1        0.0639
     48 H          -5.1159   -1.7780   -0.4551 H       1  UNL1        0.0639
     49 H          -5.6639   -1.1303   -2.7791 H       1  UNL1        0.0618
     50 N          -6.8392   -2.8397    1.2256 N.2     1  UNL1       -0.1493
     51 N          -6.6202   -1.9508    2.1274 N.2     1  UNL1       -0.1493
     52 N           3.9747    0.1598   -3.7100 N.2     1  UNL1       -0.1493
     53 N           5.1397    0.4928   -3.2814 N.2     1  UNL1       -0.1493
     54 C          -5.1439    2.5596    1.0302 C.2     1  UNL1        0.3445
     55 O          -5.3863    3.7348    0.8305 O.2     1  UNL1       -0.2445
     56 C           0.1504    3.0553   -2.8750 C.2     1  UNL1        0.3445
     57 O          -0.6308    3.9149   -3.2364 O.2     1  UNL1       -0.2445
     58 O          -3.8991    2.0433    0.9082 O.3     1  UNL1       -0.4222
     59 H          -2.1315    1.4127   -0.9194 H       1  UNL1        0.0692
     60 O           0.1310    2.5474   -1.6233 O.3     1  UNL1       -0.4207
     61 H           6.2840    5.4472   -2.2179 H       1  UNL1        0.0618
     62 H          -7.9504   -1.5006   -3.6689 H       1  UNL1        0.0618
@<TRIPOS>BOND
     1    17    12    1
     2    16    11    1
     3    12    11   ar
     4    12    13   ar
     5    11    10   ar
     6    37    31    1
     7    36    30    1
     8    31    30   ar
     9    31    32   ar
    10    30    35   ar
    11    61    32    1
    12    32    33   ar
    13    18    13    1
    14    35    34   ar
    15    35    53    1
    16    13    14   ar
    17    33    34   ar
    18    33    38    1
    19    34    39    1
    20    53    52    2
    21    10    52    1
    22    10     9   ar
    23    49    44    1
    24    14     9   ar
    25    14    56    1
    26    62    45    1
    27     9    15    1
    28    44    45   ar
    29    44    43   ar
    30    45    40   ar
    31    57    56    2
    32    56    60    1
    33    48    43    1
    34    43    42   ar
    35    40    46    1
    36    40    41   ar
    37    59     2    1
    38    60     3    1
    39    26    22    1
    40    55    54    2
    41    42    41   ar
    42    42    50    1
    43    27    23    1
    44     2     3   ar
    45     2     1   ar
    46    22    23   ar
    47    22    21   ar
    48     3     4   ar
    49    23    24   ar
    50    54    58    1
    51    54    21    1
    52    41    47    1
    53    58     1    1
    54    21    20   ar
    55    24    28    1
    56    24    19   ar
    57     1     6   ar
    58    20    19   ar
    59    20    25    1
    60    19    51    1
    61     4    29    1
    62     4     5   ar
    63    50    51    2
    64     6     5   ar
    65     6     8    1
    66     5     7    1
