@<TRIPOS>MOLECULE
*****
 62 66 0 0 0
SMALL
GASTEIGER

@<TRIPOS>ATOM
      1 C          -8.4222   -4.7001    3.8062 C.ar    1  UNL1       -0.0172
      2 C          -9.1825   -4.4730    2.6601 C.ar    1  UNL1       -0.0311
      3 C          -8.8629   -5.1286    1.4682 C.ar    1  UNL1        0.0864
      4 C          -7.8035   -6.0369    1.4391 C.ar    1  UNL1       -0.0311
      5 C          -7.0458   -6.2649    2.5850 C.ar    1  UNL1       -0.0172
      6 H          -8.6618   -4.1763    4.7282 H       1  UNL1        0.0655
      7 H         -10.0154   -3.7746    2.6963 H       1  UNL1        0.0640
      8 H          -7.5556   -6.5594    0.5178 H       1  UNL1        0.0640
      9 H          -6.2087   -6.9575    2.5463 H       1  UNL1        0.0655
     10 C          -6.6902   -1.5404    0.4087 C.ar    1  UNL1       -0.0392
     11 C          -7.5062   -0.5193    0.8901 C.ar    1  UNL1       -0.0330
     12 C          -8.8937   -0.6702    0.8753 C.ar    1  UNL1        0.0883
     13 C          -9.4580   -1.8641    0.4259 C.ar    1  UNL1       -0.0059
     14 C          -8.6428   -2.9011   -0.0328 C.ar    1  UNL1        0.1065
     15 C          -7.2525   -2.7248   -0.0661 C.ar    1  UNL1        0.0682
     16 H          -5.6113   -1.4073    0.3961 H       1  UNL1        0.0633
     17 H         -10.5398   -1.9853    0.4271 H       1  UNL1        0.0662
     18 N          -9.5635   -4.9180    0.3776 N.2     1  UNL1       -0.1493
     19 N          -9.2088   -4.0088   -0.4574 N.2     1  UNL1       -0.1478
     20 N          -9.6747    0.3057    1.2808 N.2     1  UNL1       -0.1492
     21 C          -9.3292    0.8066   -3.0513 C.ar    1  UNL1       -0.0172
     22 C          -7.7735    2.3707   -2.0659 C.ar    1  UNL1       -0.0172
     23 C          -8.4148    2.2356   -0.8370 C.ar    1  UNL1       -0.0311
     24 C          -9.5024    1.3701   -0.7077 C.ar    1  UNL1        0.0864
     25 C          -9.9734    0.6726   -1.8227 C.ar    1  UNL1       -0.0311
     26 H          -9.6934    0.2530   -3.9132 H       1  UNL1        0.0655
     27 H          -6.9178    3.0345   -2.1608 H       1  UNL1        0.0655
     28 H          -8.0533    2.7937    0.0237 H       1  UNL1        0.0640
     29 H         -10.8305    0.0092   -1.7332 H       1  UNL1        0.0640
     30 N         -10.0740    1.2158    0.4653 N.2     1  UNL1       -0.1493
     31 H          -7.0589    0.4042    1.2510 H       1  UNL1        0.0640
     32 CL         -6.1936   -3.9473   -0.6913 Cl      1  UNL1       -0.0813
     33 C          -8.2152    1.6413   -3.1679 C.ar    1  UNL1        0.1321
     34 O          -7.5447    1.7836   -4.3662 O.3     1  UNL1       -0.4223
     35 C          -7.0869    0.7653   -5.1316 C.2     1  UNL1        0.3444
     36 O          -7.2052   -0.4010   -4.8060 O.2     1  UNL1       -0.2445
     37 C          -6.3700    1.1753   -6.3875 C.ar    1  UNL1        0.0594
     38 C          -6.2184    2.5252   -6.7273 C.ar    1  UNL1       -0.0478
     39 C          -5.8336    0.2002   -7.2356 C.ar    1  UNL1       -0.0478
     40 C          -5.5416    2.8904   -7.8902 C.ar    1  UNL1       -0.0610
     41 H          -6.6239    3.3050   -6.0875 H       1  UNL1        0.0626
     42 C          -5.1575    0.5661   -8.3985 C.ar    1  UNL1       -0.0610
     43 H          -5.9381   -0.8546   -6.9926 H       1  UNL1        0.0626
     44 C          -5.0104    1.9115   -8.7262 C.ar    1  UNL1       -0.0617
     45 H          -5.4273    3.9415   -8.1439 H       1  UNL1        0.0618
     46 H          -4.7433   -0.2000   -9.0496 H       1  UNL1        0.0618
     47 C          -7.3583   -5.6004    3.7726 C.ar    1  UNL1        0.1321
     48 O          -6.5993   -5.7855    4.9113 O.3     1  UNL1       -0.4223
     49 C          -6.2589   -6.9860    5.4365 C.2     1  UNL1        0.3444
     50 O          -6.6958   -8.0354    5.0030 O.2     1  UNL1       -0.2445
     51 C          -5.3142   -6.9362    6.6044 C.ar    1  UNL1        0.0594
     52 C          -4.8197   -5.7177    7.0854 C.ar    1  UNL1       -0.0478
     53 C          -4.9083   -8.1229    7.2249 C.ar    1  UNL1       -0.0478
     54 C          -3.9366   -5.6890    8.1639 C.ar    1  UNL1       -0.0610
     55 H          -5.1158   -4.7799    6.6220 H       1  UNL1        0.0626
     56 C          -4.0260   -8.0933    8.3038 C.ar    1  UNL1       -0.0610
     57 H          -5.2781   -9.0814    6.8687 H       1  UNL1        0.0626
     58 C          -3.5391   -6.8762    8.7736 C.ar    1  UNL1       -0.0617
     59 H          -3.5567   -4.7377    8.5286 H       1  UNL1        0.0618
     60 H          -3.7169   -9.0217    8.7780 H       1  UNL1        0.0618
     61 H          -2.8497   -6.8531    9.6143 H       1  UNL1        0.0618
     62 H          -4.4816    2.1971   -9.6324 H       1  UNL1        0.0618
@<TRIPOS>BOND
     1     1     2   ar
     2     1     6    1
     3     1    47   ar
     4     2     3   ar
     5     2     7    1
     6     3     4   ar
     7     3    18    1
     8     4     5   ar
     9     4     8    1
    10     5     9    1
    11     5    47   ar
    12    10    11   ar
    13    10    15   ar
    14    10    16    1
    15    11    12   ar
    16    11    31    1
    17    12    13   ar
    18    12    20    1
    19    13    14   ar
    20    13    17    1
    21    14    15   ar
    22    14    19    1
    23    15    32    1
    24    18    19    2
    25    20    30    2
    26    21    25   ar
    27    21    26    1
    28    21    33   ar
    29    22    23   ar
    30    22    27    1
    31    22    33   ar
    32    23    24   ar
    33    23    28    1
    34    24    25   ar
    35    24    30    1
    36    25    29    1
    37    33    34    1
    38    34    35    1
    39    35    36    2
    40    35    37    1
    41    37    38   ar
    42    37    39   ar
    43    38    40   ar
    44    38    41    1
    45    39    42   ar
    46    39    43    1
    47    40    44   ar
    48    40    45    1
    49    42    44   ar
    50    42    46    1
    51    44    62    1
    52    47    48    1
    53    48    49    1
    54    49    50    2
    55    49    51    1
    56    51    52   ar
    57    51    53   ar
    58    52    54   ar
    59    52    55    1
    60    53    56   ar
    61    53    57    1
    62    54    58   ar
    63    54    59    1
    64    56    58   ar
    65    56    60    1
    66    58    61    1
