@<TRIPOS>MOLECULE
*****
 128 132 0 0 0
SMALL
GASTEIGER

@<TRIPOS>ATOM
      1 C          -0.6400    1.6620   -0.3163 C.ar    1  UNL1        0.0883
      2 C           0.7380    1.6985   -0.0907 C.ar    1  UNL1       -0.0059
      3 C           1.3743    2.9157    0.1712 C.ar    1  UNL1        0.1065
      4 C           0.6200    4.0964    0.2208 C.ar    1  UNL1        0.0682
      5 C          -0.7530    4.0565   -0.0151 C.ar    1  UNL1       -0.0392
      6 C          -1.3814    2.8448   -0.2888 C.ar    1  UNL1       -0.0330
      7 H           1.3173    0.7778   -0.1206 H       1  UNL1        0.0662
      8 H          -1.3377    4.9726    0.0153 H       1  UNL1        0.0633
      9 H          -2.4539    2.8232   -0.4695 H       1  UNL1        0.0640
     10 CL          1.3528    5.6306    0.5659 Cl      1  UNL1       -0.0813
     11 N           2.6682    2.9402    0.3691 N.2     1  UNL1       -0.1478
     12 C           5.5443    2.2821   -0.6571 C.ar    1  UNL1       -0.0311
     13 C           6.9106    2.5433   -0.5654 C.ar    1  UNL1       -0.0172
     14 C           7.3572    3.8458   -0.3480 C.ar    1  UNL1        0.1321
     15 C           6.4401    4.8856   -0.1974 C.ar    1  UNL1       -0.0172
     16 C           5.0743    4.6251   -0.2885 C.ar    1  UNL1       -0.0311
     17 C           4.6242    3.3236   -0.5240 C.ar    1  UNL1        0.0864
     18 H           5.2010    1.2689   -0.8533 H       1  UNL1        0.0640
     19 H           7.6274    1.7357   -0.6908 H       1  UNL1        0.0655
     20 H           6.7891    5.9018   -0.0325 H       1  UNL1        0.0655
     21 H           4.3638    5.4429   -0.1946 H       1  UNL1        0.0640
     22 N           3.3489    3.0959   -0.6970 N.2     1  UNL1       -0.1493
     23 C          -4.3466   -3.1479   -0.0053 C.ar    1  UNL1        0.1321
     24 C          -3.0194   -3.3756    0.3560 C.ar    1  UNL1       -0.0172
     25 C          -2.1382   -2.3038    0.4918 C.ar    1  UNL1       -0.0311
     26 C          -2.5818   -1.0016    0.2552 C.ar    1  UNL1        0.0864
     27 C          -3.9046   -0.7771   -0.1341 C.ar    1  UNL1       -0.0311
     28 C          -4.7839   -1.8491   -0.2714 C.ar    1  UNL1       -0.0172
     29 H          -2.6786   -4.3868    0.5641 H       1  UNL1        0.0655
     30 H          -1.1127   -2.4851    0.8055 H       1  UNL1        0.0640
     31 H          -4.2596    0.2356   -0.3108 H       1  UNL1        0.0640
     32 H          -5.8168   -1.6671   -0.5576 H       1  UNL1        0.0655
     33 N          -1.7865    0.0113    0.4779 N.2     1  UNL1       -0.1493
     34 N          -1.2436    0.5267   -0.5535 N.2     1  UNL1       -0.1492
     35 O          -5.2228   -4.2149   -0.0477 O.3     1  UNL1       -0.4223
     36 O          -6.6781   -3.4112    1.4722 O.2     1  UNL1       -0.2445
     37 C          -8.4359   -8.0730    0.6330 C.ar    1  UNL1       -0.0473
     38 C          -7.3482   -7.8564   -0.2158 C.ar    1  UNL1       -0.0578
     39 C          -6.6755   -6.6346   -0.2091 C.ar    1  UNL1       -0.0475
     40 C          -7.0841   -5.6045    0.6440 C.ar    1  UNL1        0.0594
     41 C          -8.1873   -5.8171    1.4757 C.ar    1  UNL1       -0.0475
     42 C          -8.8498   -7.0423    1.4790 C.ar    1  UNL1       -0.0578
     43 H          -7.0025   -8.6498   -0.8743 H       1  UNL1        0.0620
     44 H          -5.8203   -6.4987   -0.8666 H       1  UNL1        0.0626
     45 H          -8.5228   -5.0339    2.1511 H       1  UNL1        0.0626
     46 H          -9.6812   -7.1914    2.1629 H       1  UNL1        0.0620
     47 C          -6.3416   -4.2996    0.7116 C.2     1  UNL1        0.3444
     48 O           8.7104    4.1108   -0.3474 O.3     1  UNL1       -0.4223
     49 C          11.5003    4.5003   -0.0955 C.ar    1  UNL1       -0.0475
     50 C          12.8814    4.6660    0.0036 C.ar    1  UNL1       -0.0578
     51 C          13.6086    5.1901   -1.0661 C.ar    1  UNL1       -0.0473
     52 C          12.9383    5.5491   -2.2359 C.ar    1  UNL1       -0.0578
     53 C          11.5575    5.3939   -2.3314 C.ar    1  UNL1       -0.0475
     54 C          10.8246    4.8631   -1.2655 C.ar    1  UNL1        0.0594
     55 H          10.9558    4.0847    0.7488 H       1  UNL1        0.0626
     56 H          13.3908    4.3807    0.9211 H       1  UNL1        0.0620
     57 H          13.4899    5.9584   -3.0791 H       1  UNL1        0.0620
     58 H          11.0552    5.6849   -3.2507 H       1  UNL1        0.0626
     59 O           8.7426    4.9986   -2.4132 O.2     1  UNL1       -0.2445
     60 C           9.3392    4.6832   -1.4005 C.2     1  UNL1        0.3444
     61 C          -9.1094   -9.4408    0.6822 C.3     1  UNL1       -0.0277
     62 H          -8.8491   -9.9145    1.6318 H       1  UNL1        0.0313
     63 H          -8.7047  -10.0846   -0.1028 H       1  UNL1        0.0313
     64 C         -10.6498   -9.4155    0.5573 C.3     1  UNL1       -0.0491
     65 H         -11.0105  -10.4351    0.7075 H       1  UNL1        0.0268
     66 H         -11.0808   -8.8013    1.3506 H       1  UNL1        0.0268
     67 C         -11.1271   -8.9067   -0.8215 C.3     1  UNL1       -0.0528
     68 H         -10.7732   -9.5848   -1.6020 H       1  UNL1        0.0265
     69 H         -10.6788   -7.9304   -1.0208 H       1  UNL1        0.0265
     70 C         -12.6663   -8.7588   -0.9251 C.3     1  UNL1       -0.0530
     71 H         -13.0202   -8.0105   -0.2113 H       1  UNL1        0.0265
     72 H         -12.8904   -8.3645   -1.9194 H       1  UNL1        0.0265
     73 C         -13.4459  -10.0871   -0.7475 C.3     1  UNL1       -0.0531
     74 H         -12.8060  -10.9320   -1.0140 H       1  UNL1        0.0265
     75 H         -14.2778  -10.0934   -1.4532 H       1  UNL1        0.0265
     76 C         -14.0012  -10.2624    0.6893 C.3     1  UNL1       -0.0531
     77 H         -14.7074   -9.4607    0.9197 H       1  UNL1        0.0265
     78 H         -13.1833  -10.1647    1.4039 H       1  UNL1        0.0265
     79 C          15.1166    5.3621   -0.9615 C.3     1  UNL1       -0.0277
     80 H          15.5657    5.2764   -1.9543 H       1  UNL1        0.0313
     81 H          15.5253    4.5370   -0.3730 H       1  UNL1        0.0313
     82 C          15.5631    6.6949   -0.3132 C.3     1  UNL1       -0.0491
     83 H          15.1588    6.7804    0.6986 H       1  UNL1        0.0268
     84 H          16.6507    6.6614   -0.2124 H       1  UNL1        0.0268
     85 C          15.1972    7.9451   -1.1514 C.3     1  UNL1       -0.0528
     86 H          15.2056    7.6890   -2.2136 H       1  UNL1        0.0265
     87 H          15.9810    8.6872   -1.0000 H       1  UNL1        0.0265
     88 C          13.8349    8.5637   -0.7447 C.3     1  UNL1       -0.0530
     89 H          13.1290    7.7607   -0.5300 H       1  UNL1        0.0265
     90 H          13.9427    9.1265    0.1857 H       1  UNL1        0.0265
     91 C          13.1977    9.4512   -1.8444 C.3     1  UNL1       -0.0531
     92 H          13.3964    9.0398   -2.8371 H       1  UNL1        0.0265
     93 H          12.1143    9.4013   -1.7094 H       1  UNL1        0.0265
     94 C          13.5864   10.9492   -1.7925 C.3     1  UNL1       -0.0531
     95 H          12.8845   11.4794   -2.4379 H       1  UNL1        0.0265
     96 H          13.4479   11.3348   -0.7794 H       1  UNL1        0.0265
     97 C         -14.6652  -11.6439    0.9157 C.3     1  UNL1       -0.0531
     98 H         -14.4025  -11.9793    1.9222 H       1  UNL1        0.0265
     99 H         -14.2534  -12.3879    0.2291 H       1  UNL1        0.0265
    100 C          15.0229   11.2442   -2.2807 C.3     1  UNL1       -0.0531
    101 H          15.1609   10.8468   -3.2894 H       1  UNL1        0.0265
    102 H          15.7343   10.7352   -1.6326 H       1  UNL1        0.0265
    103 C         -16.2102  -11.6323    0.8262 C.3     1  UNL1       -0.0531
    104 H         -16.6130  -10.9028    1.5335 H       1  UNL1        0.0265
    105 H         -16.5640  -12.6139    1.1467 H       1  UNL1        0.0265
    106 C          15.3879   12.7489   -2.2600 C.3     1  UNL1       -0.0531
    107 H          15.2776   13.1490   -1.2488 H       1  UNL1        0.0265
    108 H          16.4497   12.8282   -2.5063 H       1  UNL1        0.0265
    109 C         -16.7449  -11.3313   -0.5933 C.3     1  UNL1       -0.0533
    110 H         -16.2915  -12.0133   -1.3171 H       1  UNL1        0.0265
    111 H         -16.4562  -10.3170   -0.8742 H       1  UNL1        0.0265
    112 C          14.5998   13.6111   -3.2776 C.3     1  UNL1       -0.0533
    113 H          14.2355   12.9898   -4.0998 H       1  UNL1        0.0265
    114 H          15.2873   14.3399   -3.7149 H       1  UNL1        0.0265
    115 C         -18.2859  -11.4237   -0.6856 C.3     1  UNL1       -0.0559
    116 H         -18.5995  -11.0279   -1.6546 H       1  UNL1        0.0263
    117 H         -18.7433  -10.7929    0.0806 H       1  UNL1        0.0263
    118 C          13.4298   14.3856   -2.6278 C.3     1  UNL1       -0.0559
    119 H          12.7231   13.6976   -2.1622 H       1  UNL1        0.0263
    120 H          13.8149   15.0375   -1.8399 H       1  UNL1        0.0263
    121 C          12.6842   15.2426   -3.6674 C.3     1  UNL1       -0.0653
    122 H          12.2710   14.6145   -4.4604 H       1  UNL1        0.0230
    123 H          11.8612   15.7813   -3.1927 H       1  UNL1        0.0230
    124 H          13.3579   15.9744   -4.1188 H       1  UNL1        0.0230
    125 C         -18.8160  -12.8663   -0.5559 C.3     1  UNL1       -0.0653
    126 H         -18.6287  -13.2700    0.4408 H       1  UNL1        0.0230
    127 H         -19.8947  -12.8846   -0.7264 H       1  UNL1        0.0230
    128 H         -18.3434  -13.5199   -1.2927 H       1  UNL1        0.0230
@<TRIPOS>BOND
     1     1     2   ar
     2     1     6   ar
     3     1    34    1
     4     2     3   ar
     5     2     7    1
     6     3     4   ar
     7     3    11    1
     8     4     5   ar
     9     4    10    1
    10     5     6   ar
    11     5     8    1
    12     6     9    1
    13    11    22    2
    14    12    13   ar
    15    12    17   ar
    16    12    18    1
    17    13    14   ar
    18    13    19    1
    19    14    15   ar
    20    14    48    1
    21    15    16   ar
    22    15    20    1
    23    16    17   ar
    24    16    21    1
    25    17    22    1
    26    23    24   ar
    27    23    28   ar
    28    23    35    1
    29    24    25   ar
    30    24    29    1
    31    25    26   ar
    32    25    30    1
    33    26    27   ar
    34    26    33    1
    35    27    28   ar
    36    27    31    1
    37    28    32    1
    38    33    34    2
    39    35    47    1
    40    36    47    2
    41    37    38   ar
    42    37    42   ar
    43    37    61    1
    44    38    39   ar
    45    38    43    1
    46    39    40   ar
    47    39    44    1
    48    40    41   ar
    49    40    47    1
    50    41    42   ar
    51    41    45    1
    52    42    46    1
    53    48    60    1
    54    49    50   ar
    55    49    54   ar
    56    49    55    1
    57    50    51   ar
    58    50    56    1
    59    51    52   ar
    60    51    79    1
    61    52    53   ar
    62    52    57    1
    63    53    54   ar
    64    53    58    1
    65    54    60    1
    66    59    60    2
    67    61    62    1
    68    61    63    1
    69    61    64    1
    70    64    65    1
    71    64    66    1
    72    64    67    1
    73    67    68    1
    74    67    69    1
    75    67    70    1
    76    70    71    1
    77    70    72    1
    78    70    73    1
    79    73    74    1
    80    73    75    1
    81    73    76    1
    82    76    77    1
    83    76    78    1
    84    76    97    1
    85    79    80    1
    86    79    81    1
    87    79    82    1
    88    82    83    1
    89    82    84    1
    90    82    85    1
    91    85    86    1
    92    85    87    1
    93    85    88    1
    94    88    89    1
    95    88    90    1
    96    88    91    1
    97    91    92    1
    98    91    93    1
    99    91    94    1
   100    94    95    1
   101    94    96    1
   102    94   100    1
   103    97    98    1
   104    97    99    1
   105    97   103    1
   106   100   101    1
   107   100   102    1
   108   100   106    1
   109   103   104    1
   110   103   105    1
   111   103   109    1
   112   106   107    1
   113   106   108    1
   114   106   112    1
   115   109   110    1
   116   109   111    1
   117   109   115    1
   118   112   113    1
   119   112   114    1
   120   112   118    1
   121   115   116    1
   122   115   117    1
   123   115   125    1
   124   118   119    1
   125   118   120    1
   126   118   121    1
   127   121   122    1
   128   121   123    1
   129   121   124    1
   130   125   126    1
   131   125   127    1
   132   125   128    1
